@<TRIPOS>MOLECULE
*****
 21 21 0 0 0
SMALL
GASTEIGER

@<TRIPOS>ATOM
      1 C           1.0670    0.1760   -0.0880 C.3     1  UNL1        0.0336
      2 C           2.5190   -0.1250    0.1500 C.2     1  UNL1        0.3092
      3 O           2.8960   -1.1070   -0.4650 O.2     1  UNL1       -0.2507
      4 O           3.1990    0.8560    0.8190 O.3     1  UNL1       -0.4252
      5 C           4.5740    0.6030    0.9080 C.ar    1  UNL1        0.1456
      6 C           5.3280    0.6760   -0.2680 C.ar    1  UNL1       -0.0184
      7 C           6.7110    0.5410   -0.2160 C.ar    1  UNL1       -0.0582
      8 C           7.3420    0.3690    1.0110 C.ar    1  UNL1       -0.0608
      9 C           6.5860    0.3230    2.1820 C.ar    1  UNL1       -0.0442
     10 C           5.1910    0.4400    2.1560 C.ar    1  UNL1        0.1010
     11 C           4.4370    0.3680    3.4510 C.2     1  UNL1        0.3404
     12 O           5.0940    0.5670    4.5150 O.2     1  UNL1       -0.2450
     13 O           3.1990    0.0910    3.3740 O.3     1  UNL1       -0.4770
     14 H           0.6150   -0.6390   -0.6140 H       1  UNL1        0.0342
     15 H           0.9790    1.0690   -0.6710 H       1  UNL1        0.0342
     16 H           0.5720    0.3130    0.8510 H       1  UNL1        0.0342
     17 H           4.8580    0.8300   -1.1740 H       1  UNL1        0.0654
     18 H           7.2670    0.5690   -1.0850 H       1  UNL1        0.0619
     19 H           8.3680    0.2750    1.0550 H       1  UNL1        0.0618
     20 H           7.0660    0.2010    3.0880 H       1  UNL1        0.0627
     21 H           2.8000   -0.0400    2.5360 H       1  UNL1        0.2954
@<TRIPOS>BOND
     1     1     2    1
     2     1    14    1
     3     1    15    1
     4     1    16    1
     5     2     3    2
     6     2     4    1
     7     4     5    1
     8     5     6   ar
     9     5    10   ar
    10     6     7   ar
    11     6    17    1
    12     7     8   ar
    13     7    18    1
    14     8     9   ar
    15     8    19    1
    16     9    10   ar
    17     9    20    1
    18    10    11    1
    19    11    12    2
    20    11    13    1
    21    13    21    1
