@<TRIPOS>MOLECULE
*****
 151 151 0 0 0
SMALL
GASTEIGER

@<TRIPOS>ATOM
      1 C           1.7945    0.2153   -0.3162 C.3     1  UNL1       -0.0653
      2 C           2.4420   -0.6651    0.7415 C.3     1  UNL1       -0.0559
      3 C           3.9021   -0.9728    0.4040 C.3     1  UNL1       -0.0533
      4 C           4.5455   -1.8655    1.4687 C.3     1  UNL1       -0.0531
      5 C           6.0105   -2.1724    1.1408 C.3     1  UNL1       -0.0531
      6 C           6.6429   -3.0783    2.2021 C.3     1  UNL1       -0.0531
      7 C           8.1129   -3.3863    1.8920 C.3     1  UNL1       -0.0531
      8 C           8.7216   -4.3143    2.9491 C.3     1  UNL1       -0.0531
      9 C          10.2005   -4.6224    2.6760 C.3     1  UNL1       -0.0531
     10 C          10.7650   -5.5822    3.7300 C.3     1  UNL1       -0.0531
     11 C          12.2613   -5.8743    3.5379 C.3     1  UNL1       -0.0531
     12 C          12.7566   -6.8624    4.6018 C.3     1  UNL1       -0.0530
     13 C          14.2765   -7.0975    4.5739 C.3     1  UNL1       -0.0526
     14 C          14.6774   -8.0621    5.7007 C.3     1  UNL1       -0.0430
     15 C          16.1851   -8.1572    5.9759 C.3     1  UNL1        0.0449
     16 C          16.9364   -9.1454    5.1025 C.2     1  UNL1        0.3072
     17 O          16.4061   -9.7876    4.1983 O.2     1  UNL1       -0.2509
     18 O          18.2780   -9.2579    5.3258 O.3     1  UNL1       -0.4608
     19 C          18.8748   -9.1764    6.6473 C.3     1  UNL1        0.1315
     20 C          19.4645  -10.5291    7.1161 C.3     1  UNL1        0.1605
     21 H          19.2539  -10.6206    8.1888 H       1  UNL1        0.0792
     22 C          18.9245  -11.7333    6.3433 C.3     1  UNL1        0.0993
     23 O          17.5002  -11.8618    6.2717 O.3     1  UNL1       -0.2828
     24 P          16.9235  -13.3183    5.5375 P.3     1  UNL1        0.4752
     25 O          18.2622  -13.6112    4.8447 O.2     1  UNL1       -0.2273
     26 O          16.9943  -14.0861    6.9707 O.3     1  UNL1       -0.3025
     27 O          16.3469  -14.7747    4.8033 O.3     1  UNL1       -0.2813
     28 C          16.2042  -14.7281    3.3858 C.3     1  UNL1        0.0989
     29 C          17.4669  -15.3063    2.7230 C.3     1  UNL1       -0.0063
     30 N          17.2350  -15.9594    1.3407 N.4     1  UNL1        0.2385
     31 C          16.5992  -14.9789    0.3681 C.3     1  UNL1       -0.0417
     32 C          18.6068  -16.3678    0.7930 C.3     1  UNL1       -0.0417
     33 C          16.3814  -17.2156    1.4621 C.3     1  UNL1       -0.0417
     34 O          20.9193  -10.5272    6.9261 O.3     1  UNL1       -0.4555
     35 C          21.6216  -11.4718    7.6314 C.2     1  UNL1        0.3075
     36 O          21.1537  -12.1404    8.5412 O.2     1  UNL1       -0.2508
     37 C          23.0213  -11.6677    7.0743 C.3     1  UNL1        0.0450
     38 C          24.1199  -11.0431    7.9291 C.3     1  UNL1       -0.0430
     39 C          24.6978  -11.9348    9.0421 C.3     1  UNL1       -0.0526
     40 C          25.7240  -12.9905    8.5746 C.3     1  UNL1       -0.0530
     41 C          26.6709  -13.3779    9.7279 C.3     1  UNL1       -0.0531
     42 C          27.6477  -14.5231    9.4010 C.3     1  UNL1       -0.0529
     43 C          28.6911  -14.6914   10.5269 C.3     1  UNL1       -0.0491
     44 C          29.3622  -16.0788   10.5853 C.3     1  UNL1       -0.0080
     45 C          30.8372  -16.2049   10.0669 C.3     1  UNL1        0.1455
     46 C          30.8683  -15.8452    8.5611 C.3     1  UNL1       -0.0080
     47 C          32.1809  -15.9634    7.7742 C.3     1  UNL1       -0.0491
     48 C          33.2218  -14.8629    8.0168 C.3     1  UNL1       -0.0529
     49 C          34.3458  -14.9953    6.9792 C.3     1  UNL1       -0.0531
     50 C          35.5688  -14.1278    7.2810 C.3     1  UNL1       -0.0531
     51 C          36.5505  -14.1719    6.1037 C.3     1  UNL1       -0.0533
     52 C          37.8786  -13.4893    6.4259 C.3     1  UNL1       -0.0559
     53 C          38.7947  -13.4670    5.2104 C.3     1  UNL1       -0.0653
     54 O          31.6654  -15.2818   10.7915 O.3     1  UNL1       -0.3550
     55 C          32.2167  -16.0283   11.8898 C.3     1  UNL1        0.0702
     56 C          32.3993  -17.4516   11.3573 C.3     1  UNL1        0.0675
     57 C          32.3067  -18.4849   12.4857 C.3     1  UNL1       -0.0424
     58 C          33.7667  -17.6045   10.6717 C.3     1  UNL1       -0.0424
     59 N          31.2209  -17.5752   10.4807 N.4     1  UNL1       -0.1517
     60 O          31.4811  -18.4666    9.3795 O.3     1  UNL1       -0.3091
     61 H           2.3184    1.1723   -0.4057 H       1  UNL1        0.0230
     62 H           0.7528    0.4228   -0.0511 H       1  UNL1        0.0230
     63 H           1.8037   -0.2750   -1.2949 H       1  UNL1        0.0230
     64 H           2.3828   -0.1604    1.7129 H       1  UNL1        0.0263
     65 H           1.8741   -1.5990    0.8265 H       1  UNL1        0.0263
     66 H           4.4643   -0.0348    0.3213 H       1  UNL1        0.0265
     67 H           3.9555   -1.4691   -0.5726 H       1  UNL1        0.0265
     68 H           4.4849   -1.3707    2.4457 H       1  UNL1        0.0265
     69 H           3.9826   -2.8036    1.5467 H       1  UNL1        0.0265
     70 H           6.5748   -1.2345    1.0738 H       1  UNL1        0.0265
     71 H           6.0722   -2.6586    0.1597 H       1  UNL1        0.0265
     72 H           6.0774   -4.0162    2.2628 H       1  UNL1        0.0265
     73 H           6.5707   -2.5948    3.1840 H       1  UNL1        0.0265
     74 H           8.1891   -3.8564    0.9042 H       1  UNL1        0.0265
     75 H           8.6823   -2.4500    1.8513 H       1  UNL1        0.0265
     76 H           8.1528   -5.2518    2.9779 H       1  UNL1        0.0265
     77 H           8.6248   -3.8501    3.9383 H       1  UNL1        0.0265
     78 H          10.7752   -3.6886    2.6796 H       1  UNL1        0.0265
     79 H          10.3072   -5.0676    1.6797 H       1  UNL1        0.0265
     80 H          10.6090   -5.1524    4.7274 H       1  UNL1        0.0265
     81 H          10.2032   -6.5239    3.6971 H       1  UNL1        0.0265
     82 H          12.8271   -4.9379    3.6076 H       1  UNL1        0.0265
     83 H          12.4359   -6.2898    2.5387 H       1  UNL1        0.0265
     84 H          12.2385   -7.8208    4.4723 H       1  UNL1        0.0265
     85 H          12.4766   -6.4822    5.5927 H       1  UNL1        0.0265
     86 H          14.7919   -6.1386    4.7029 H       1  UNL1        0.0265
     87 H          14.5784   -7.5065    3.6033 H       1  UNL1        0.0265
     88 H          14.2597   -9.0559    5.4990 H       1  UNL1        0.0270
     89 H          14.2051   -7.7100    6.6276 H       1  UNL1        0.0270
     90 H          16.2609   -8.5010    7.0107 H       1  UNL1        0.0377
     91 H          16.6561   -7.1732    5.8861 H       1  UNL1        0.0377
     92 H          18.1508   -8.8471    7.3925 H       1  UNL1        0.0736
     93 H          19.6579   -8.4127    6.5955 H       1  UNL1        0.0736
     94 H          19.3310  -12.6468    6.7911 H       1  UNL1        0.0604
     95 H          19.3255  -11.6645    5.3238 H       1  UNL1        0.0604
     96 H          17.8708  -14.4935    7.0928 H       1  UNL1        0.2220
     97 H          16.0220  -13.6996    3.0556 H       1  UNL1        0.0619
     98 H          15.3115  -15.3107    3.1518 H       1  UNL1        0.0619
     99 H          17.9281  -16.0715    3.3595 H       1  UNL1        0.0838
    100 H          18.2033  -14.5111    2.5617 H       1  UNL1        0.0838
    101 H          17.2242  -14.0824    0.3220 H       1  UNL1        0.0778
    102 H          15.5955  -14.7308    0.7230 H       1  UNL1        0.0778
    103 H          16.5405  -15.4562   -0.6147 H       1  UNL1        0.0778
    104 H          19.2230  -15.4692    0.6939 H       1  UNL1        0.0778
    105 H          18.4639  -16.8402   -0.1835 H       1  UNL1        0.0778
    106 H          19.0635  -17.0724    1.4947 H       1  UNL1        0.0778
    107 H          15.3677  -16.9343    1.7548 H       1  UNL1        0.0778
    108 H          16.8335  -17.8720    2.2113 H       1  UNL1        0.0778
    109 H          16.3570  -17.7106    0.4864 H       1  UNL1        0.0778
    110 H          23.0450  -11.2159    6.0746 H       1  UNL1        0.0377
    111 H          23.1825  -12.7405    6.9200 H       1  UNL1        0.0377
    112 H          23.7316  -10.1271    8.3914 H       1  UNL1        0.0270
    113 H          24.9431  -10.7334    7.2735 H       1  UNL1        0.0270
    114 H          23.8896  -12.4277    9.5951 H       1  UNL1        0.0265
    115 H          25.1963  -11.2648    9.7545 H       1  UNL1        0.0265
    116 H          26.3244  -12.5973    7.7462 H       1  UNL1        0.0265
    117 H          25.1961  -13.8763    8.2031 H       1  UNL1        0.0265
    118 H          26.0721  -13.6679   10.6008 H       1  UNL1        0.0265
    119 H          27.2480  -12.4910   10.0186 H       1  UNL1        0.0265
    120 H          28.1600  -14.3261    8.4532 H       1  UNL1        0.0265
    121 H          27.0722  -15.4475    9.2747 H       1  UNL1        0.0265
    122 H          28.1722  -14.5505   11.4848 H       1  UNL1        0.0267
    123 H          29.4375  -13.8914   10.4681 H       1  UNL1        0.0267
    124 H          28.7287  -16.8221   10.0831 H       1  UNL1        0.0307
    125 H          29.3585  -16.3567   11.6503 H       1  UNL1        0.0307
    126 H          30.5287  -14.8092    8.4398 H       1  UNL1        0.0307
    127 H          30.1291  -16.4746    8.0473 H       1  UNL1        0.0307
    128 H          31.9082  -15.9279    6.7103 H       1  UNL1        0.0267
    129 H          32.6425  -16.9435    7.9205 H       1  UNL1        0.0267
    130 H          32.7573  -13.8745    7.9237 H       1  UNL1        0.0265
    131 H          33.6320  -14.9292    9.0279 H       1  UNL1        0.0265
    132 H          33.9441  -14.7317    5.9926 H       1  UNL1        0.0265
    133 H          34.6700  -16.0422    6.9194 H       1  UNL1        0.0265
    134 H          35.2642  -13.0914    7.4670 H       1  UNL1        0.0265
    135 H          36.0582  -14.4943    8.1913 H       1  UNL1        0.0265
    136 H          36.7436  -15.2142    5.8207 H       1  UNL1        0.0265
    137 H          36.0889  -13.6861    5.2348 H       1  UNL1        0.0265
    138 H          38.3790  -14.0229    7.2423 H       1  UNL1        0.0263
    139 H          37.7041  -12.4622    6.7651 H       1  UNL1        0.0263
    140 H          38.9836  -14.4798    4.8395 H       1  UNL1        0.0230
    141 H          39.7576  -13.0142    5.4665 H       1  UNL1        0.0230
    142 H          38.3511  -12.8827    4.3975 H       1  UNL1        0.0230
    143 H          31.5096  -15.9754   12.7265 H       1  UNL1        0.0580
    144 H          33.1541  -15.5576   12.2028 H       1  UNL1        0.0580
    145 H          33.1051  -18.3356   13.2219 H       1  UNL1        0.0249
    146 H          32.3934  -19.5067   12.0983 H       1  UNL1        0.0249
    147 H          31.3525  -18.4140   13.0207 H       1  UNL1        0.0249
    148 H          34.5786  -17.4406   11.3909 H       1  UNL1        0.0249
    149 H          33.9129  -16.8912    9.8626 H       1  UNL1        0.0249
    150 H          33.9010  -18.6106   10.2588 H       1  UNL1        0.0249
    151 H          30.8685  -19.2013    9.5705 H       1  UNL1        0.2367
@<TRIPOS>BOND
     1     1     2    1
     2     2     3    1
     3     3     4    1
     4     4     5    1
     5     5     6    1
     6     6     7    1
     7     7     8    1
     8     8     9    1
     9     9    10    1
    10    10    11    1
    11    11    12    1
    12    12    13    1
    13    13    14    1
    14    14    15    1
    15    15    16    1
    16    16    17    2
    17    16    18    1
    18    18    19    1
    19    19    20    1
    20    20    21    1
    21    20    22    1
    22    22    23    1
    23    23    24    1
    24    24    25    2
    25    24    26    1
    26    24    27    1
    27    27    28    1
    28    28    29    1
    29    29    30    1
    30    30    31    1
    31    30    32    1
    32    30    33    1
    33    20    34    1
    34    34    35    1
    35    35    36    2
    36    35    37    1
    37    37    38    1
    38    38    39    1
    39    39    40    1
    40    40    41    1
    41    41    42    1
    42    42    43    1
    43    43    44    1
    44    44    45    1
    45    45    46    1
    46    46    47    1
    47    47    48    1
    48    48    49    1
    49    49    50    1
    50    50    51    1
    51    51    52    1
    52    52    53    1
    53    45    54    1
    54    54    55    1
    55    55    56    1
    56    56    57    1
    57    56    58    1
    58    56    59    1
    59    45    59    1
    60    59    60    1
    61     1    61    1
    62     1    62    1
    63     1    63    1
    64     2    64    1
    65     2    65    1
    66     3    66    1
    67     3    67    1
    68     4    68    1
    69     4    69    1
    70     5    70    1
    71     5    71    1
    72     6    72    1
    73     6    73    1
    74     7    74    1
    75     7    75    1
    76     8    76    1
    77     8    77    1
    78     9    78    1
    79     9    79    1
    80    10    80    1
    81    10    81    1
    82    11    82    1
    83    11    83    1
    84    12    84    1
    85    12    85    1
    86    13    86    1
    87    13    87    1
    88    14    88    1
    89    14    89    1
    90    15    90    1
    91    15    91    1
    92    19    92    1
    93    19    93    1
    94    22    94    1
    95    22    95    1
    96    26    96    1
    97    28    97    1
    98    28    98    1
    99    29    99    1
   100    29   100    1
   101    31   101    1
   102    31   102    1
   103    31   103    1
   104    32   104    1
   105    32   105    1
   106    32   106    1
   107    33   107    1
   108    33   108    1
   109    33   109    1
   110    37   110    1
   111    37   111    1
   112    38   112    1
   113    38   113    1
   114    39   114    1
   115    39   115    1
   116    40   116    1
   117    40   117    1
   118    41   118    1
   119    41   119    1
   120    42   120    1
   121    42   121    1
   122    43   122    1
   123    43   123    1
   124    44   124    1
   125    44   125    1
   126    46   126    1
   127    46   127    1
   128    47   128    1
   129    47   129    1
   130    48   130    1
   131    48   131    1
   132    49   132    1
   133    49   133    1
   134    50   134    1
   135    50   135    1
   136    51   136    1
   137    51   137    1
   138    52   138    1
   139    52   139    1
   140    53   140    1
   141    53   141    1
   142    53   142    1
   143    55   143    1
   144    55   144    1
   145    57   145    1
   146    57   146    1
   147    57   147    1
   148    58   148    1
   149    58   149    1
   150    58   150    1
   151    60   151    1
