@<TRIPOS>MOLECULE
*****
 75 78 0 0 0
SMALL
GASTEIGER

@<TRIPOS>ATOM
      1 C           9.1977   -1.1073    1.7020 C.3     1  UNL1       -0.0603
      2 C           8.2697   -0.1711    0.9165 C.3     1  UNL1       -0.0206
      3 C           6.9217   -0.8606    0.6975 C.3     1  UNL1       -0.0603
      4 C           8.9320    0.2840   -0.4066 C.3     1  UNL1        0.0576
      5 H           9.1500   -0.5927   -1.0288 H       1  UNL1        0.0596
      6 O          10.1757    0.9071   -0.0793 O.3     1  UNL1       -0.3915
      7 C           8.0610    1.2790   -1.1939 C.3     1  UNL1       -0.0264
      8 C           8.7508    1.8357   -2.4516 C.3     1  UNL1       -0.0478
      9 C           7.9201    2.8777   -3.2509 C.3     1  UNL1       -0.0405
     10 H           8.5599    3.1899   -4.0857 H       1  UNL1        0.0301
     11 C           6.6802    2.1975   -3.8473 C.3     1  UNL1       -0.0621
     12 C           7.5461    4.1302   -2.4137 C.3     1  UNL1       -0.0328
     13 H           6.8232    3.7900   -1.6592 H       1  UNL1        0.0309
     14 C           8.7138    4.7200   -1.6116 C.3     1  UNL1       -0.0492
     15 C           8.1402    6.0314   -1.1015 C.3     1  UNL1       -0.0492
     16 C           7.4947    6.6149   -2.3546 C.3     1  UNL1       -0.0320
     17 C           6.6011    7.8701   -2.2173 C.3     1  UNL1       -0.0307
     18 C           7.0820    8.8742   -1.1607 C.3     1  UNL1       -0.0311
     19 C           6.6248    8.5116    0.2123 C.2     1  UNL1       -0.0839
     20 C           5.4676    7.8721    0.4493 C.2     1  UNL1       -0.0648
     21 C           5.1145    7.4029    1.8400 C.3     1  UNL1       -0.0051
     22 C           4.9670    5.8743    1.8987 C.3     1  UNL1        0.0590
     23 H           5.9113    5.4227    2.2240 H       1  UNL1        0.0596
     24 O           3.9956    5.5356    2.8931 O.3     1  UNL1       -0.3915
     25 C           4.5579    5.2419    0.5620 C.3     1  UNL1       -0.0258
     26 C           3.7231    6.2009   -0.2904 C.3     1  UNL1       -0.0413
     27 C           4.4551    7.5352   -0.6527 C.3     1  UNL1       -0.0078
     28 C           3.3539    8.6409   -0.5859 C.3     1  UNL1       -0.0556
     29 C           5.0770    7.6351   -2.1198 C.3     1  UNL1       -0.0285
     30 C           4.6406    6.6140   -3.1769 C.3     1  UNL1       -0.0486
     31 C           5.3741    5.2852   -3.0863 C.3     1  UNL1       -0.0468
     32 C           6.9154    5.3875   -3.1422 C.3     1  UNL1       -0.0259
     33 C           7.3621    5.5375   -4.6128 C.3     1  UNL1       -0.0590
     34 H           8.7274   -1.4228    2.6398 H       1  UNL1        0.0233
     35 H          10.1381   -0.6109    1.9622 H       1  UNL1        0.0233
     36 H           9.4351   -2.0058    1.1227 H       1  UNL1        0.0233
     37 H           8.1063    0.7132    1.5473 H       1  UNL1        0.0320
     38 H           7.0171   -1.7066    0.0088 H       1  UNL1        0.0233
     39 H           6.1788   -0.1679    0.2913 H       1  UNL1        0.0233
     40 H           6.5199   -1.2391    1.6439 H       1  UNL1        0.0233
     41 H          10.7289    0.8997   -0.8784 H       1  UNL1        0.2098
     42 H           7.7993    2.1063   -0.5262 H       1  UNL1        0.0290
     43 H           7.1282    0.7896   -1.4895 H       1  UNL1        0.0290
     44 H           8.9992    0.9968   -3.1149 H       1  UNL1        0.0269
     45 H           9.7097    2.2932   -2.1842 H       1  UNL1        0.0269
     46 H           6.9477    1.2500   -4.3276 H       1  UNL1        0.0233
     47 H           6.2073    2.8146   -4.6136 H       1  UNL1        0.0233
     48 H           5.9270    1.9876   -3.0810 H       1  UNL1        0.0233
     49 H           9.5840    4.8966   -2.2551 H       1  UNL1        0.0268
     50 H           9.0260    4.0872   -0.7764 H       1  UNL1        0.0268
     51 H           8.9303    6.6714   -0.6971 H       1  UNL1        0.0268
     52 H           7.4125    5.8406   -0.3114 H       1  UNL1        0.0268
     53 H           8.3641    6.9803   -2.9282 H       1  UNL1        0.0309
     54 H           6.7406    8.3881   -3.1810 H       1  UNL1        0.0309
     55 H           6.7087    9.8789   -1.3953 H       1  UNL1        0.0310
     56 H           8.1761    8.9408   -1.1808 H       1  UNL1        0.0310
     57 H           7.3022    8.7488    1.0295 H       1  UNL1        0.0572
     58 H           4.1883    7.8931    2.1647 H       1  UNL1        0.0335
     59 H           5.8683    7.7105    2.5760 H       1  UNL1        0.0335
     60 H           3.1336    5.8718    2.5942 H       1  UNL1        0.2098
     61 H           3.9864    4.3223    0.7355 H       1  UNL1        0.0290
     62 H           5.4546    4.9557    0.0086 H       1  UNL1        0.0290
     63 H           2.8150    6.4208    0.2896 H       1  UNL1        0.0274
     64 H           3.3440    5.6803   -1.1712 H       1  UNL1        0.0274
     65 H           2.8565    8.6737    0.3905 H       1  UNL1        0.0238
     66 H           2.5794    8.4635   -1.3416 H       1  UNL1        0.0238
     67 H           3.7740    9.6392   -0.7608 H       1  UNL1        0.0238
     68 H           4.6673    8.5773   -2.5208 H       1  UNL1        0.0312
     69 H           4.8293    7.0409   -4.1715 H       1  UNL1        0.0268
     70 H           3.5567    6.4585   -3.1412 H       1  UNL1        0.0268
     71 H           5.0128    4.6425   -3.8981 H       1  UNL1        0.0271
     72 H           5.0630    4.7758   -2.1737 H       1  UNL1        0.0271
     73 H           6.9542    4.7539   -5.2559 H       1  UNL1        0.0235
     74 H           8.4538    5.5040   -4.7027 H       1  UNL1        0.0235
     75 H           7.0305    6.4955   -5.0289 H       1  UNL1        0.0235
@<TRIPOS>BOND
     1     1     2    1
     2     2     3    1
     3     4     6    1
     4     4     7    1
     5     7     8    1
     6     8     9    1
     7     9    10    1
     8     9    11    1
     9    12    14    1
    10    14    15    1
    11    15    16    1
    12    16    17    1
    13    17    18    1
    14    18    19    1
    15    19    20    2
    16    20    21    1
    17    21    22    1
    18    22    25    1
    19    25    26    1
    20    26    27    1
    21    20    27    1
    22    27    29    1
    23    17    29    1
    24    29    30    1
    25    30    31    1
    26    31    32    1
    27    12    32    1
    28    16    32    1
    29    27    28    1
    30    32    33    1
    31     4     5    1
    32     4     2    1
    33    12    13    1
    34    12     9    1
    35    22    24    1
    36    22    23    1
    37     1    34    1
    38     1    35    1
    39     1    36    1
    40     2    37    1
    41     3    38    1
    42     3    39    1
    43     3    40    1
    44     6    41    1
    45     7    42    1
    46     7    43    1
    47     8    44    1
    48     8    45    1
    49    11    46    1
    50    11    47    1
    51    11    48    1
    52    14    49    1
    53    14    50    1
    54    15    51    1
    55    15    52    1
    56    16    53    1
    57    17    54    1
    58    18    55    1
    59    18    56    1
    60    19    57    1
    61    21    58    1
    62    21    59    1
    63    24    60    1
    64    25    61    1
    65    25    62    1
    66    26    63    1
    67    26    64    1
    68    28    65    1
    69    28    66    1
    70    28    67    1
    71    29    68    1
    72    30    69    1
    73    30    70    1
    74    31    71    1
    75    31    72    1
    76    33    73    1
    77    33    74    1
    78    33    75    1
