@<TRIPOS>MOLECULE
*****
 75 78 0 0 0
SMALL
GASTEIGER

@<TRIPOS>ATOM
      1 C           1.3025    0.1889    1.3742 C.3     1  UNL1       -0.0603
      2 C           2.6968    0.7564    1.0865 C.3     1  UNL1       -0.0206
      3 C           3.5995   -0.3712    0.5724 C.3     1  UNL1       -0.0603
      4 C           3.2693    1.4737    2.3332 C.3     1  UNL1        0.0576
      5 H           2.5045    2.1360    2.7574 H       1  UNL1        0.0596
      6 O           3.6234    0.5283    3.3396 O.3     1  UNL1       -0.3915
      7 C           4.4995    2.3282    1.9931 C.3     1  UNL1       -0.0264
      8 C           5.0996    3.0375    3.2251 C.3     1  UNL1       -0.0478
      9 C           6.2835    3.9563    2.8243 C.3     1  UNL1       -0.0405
     10 H           6.8355    3.4263    2.0432 H       1  UNL1        0.0301
     11 C           5.6895    5.2406    2.2002 C.3     1  UNL1       -0.0621
     12 C           7.2980    4.3406    3.9577 C.3     1  UNL1       -0.0328
     13 H           6.8275    5.1818    4.4880 H       1  UNL1        0.0309
     14 C           7.5752    3.2617    5.0373 C.3     1  UNL1       -0.0492
     15 C           9.0801    3.0120    5.1071 C.3     1  UNL1       -0.0492
     16 C           9.6777    3.5900    3.8271 C.3     1  UNL1       -0.0320
     17 C           9.9340    2.5750    2.6621 C.3     1  UNL1       -0.0307
     18 C           8.8786    1.4730    2.5459 C.3     1  UNL1       -0.0311
     19 C           8.5909    0.9354    1.1995 C.2     1  UNL1       -0.0839
     20 C           9.0456    1.4307    0.0436 C.2     1  UNL1       -0.0648
     21 C           8.5410    0.8178   -1.2550 C.3     1  UNL1       -0.0051
     22 C           7.8920    1.8739   -2.1519 C.3     1  UNL1        0.0590
     23 H           7.6475    1.4269   -3.1214 H       1  UNL1        0.0596
     24 O           6.6532    2.3185   -1.5913 O.3     1  UNL1       -0.3915
     25 C           8.8205    3.0633   -2.3672 C.3     1  UNL1       -0.0258
     26 C           9.3420    3.6492   -1.0470 C.3     1  UNL1       -0.0413
     27 C           9.9890    2.6258   -0.0597 C.3     1  UNL1       -0.0078
     28 C          11.3129    2.1164   -0.7011 C.3     1  UNL1       -0.0556
     29 C          10.4041    3.2834    1.3453 C.3     1  UNL1       -0.0285
     30 C          10.2747    4.8220    1.4586 C.3     1  UNL1       -0.0486
     31 C           8.9190    5.2283    2.0188 C.3     1  UNL1       -0.0468
     32 C           8.7437    4.7892    3.4884 C.3     1  UNL1       -0.0259
     33 C           9.1619    5.9982    4.3778 C.3     1  UNL1       -0.0590
     34 H           0.8678   -0.2434    0.4662 H       1  UNL1        0.0233
     35 H           0.6266    0.9777    1.7205 H       1  UNL1        0.0233
     36 H           1.3312   -0.5962    2.1365 H       1  UNL1        0.0233
     37 H           2.5848    1.4966    0.2836 H       1  UNL1        0.0320
     38 H           3.7413   -1.1513    1.3280 H       1  UNL1        0.0233
     39 H           4.5849    0.0034    0.2806 H       1  UNL1        0.0233
     40 H           3.1584   -0.8441   -0.3121 H       1  UNL1        0.0233
     41 H           2.8059    0.0977    3.6407 H       1  UNL1        0.2098
     42 H           5.2856    1.6932    1.5676 H       1  UNL1        0.0290
     43 H           4.2199    3.0588    1.2272 H       1  UNL1        0.0290
     44 H           5.4125    2.2529    3.9128 H       1  UNL1        0.0269
     45 H           4.3264    3.6150    3.7454 H       1  UNL1        0.0269
     46 H           4.9069    5.6631    2.8399 H       1  UNL1        0.0233
     47 H           5.2481    5.0318    1.2207 H       1  UNL1        0.0233
     48 H           6.4326    6.0275    2.0551 H       1  UNL1        0.0233
     49 H           7.0828    2.3078    4.8571 H       1  UNL1        0.0268
     50 H           7.2125    3.6063    6.0135 H       1  UNL1        0.0268
     51 H           9.3162    1.9532    5.2527 H       1  UNL1        0.0268
     52 H           9.4890    3.5382    5.9787 H       1  UNL1        0.0268
     53 H          10.6751    3.9744    4.0889 H       1  UNL1        0.0309
     54 H          10.8278    2.0187    2.9935 H       1  UNL1        0.0309
     55 H           7.9190    1.7905    2.9429 H       1  UNL1        0.0310
     56 H           9.1871    0.6316    3.1812 H       1  UNL1        0.0310
     57 H           7.9011    0.0915    1.1893 H       1  UNL1        0.0572
     58 H           7.8026    0.0319   -1.0504 H       1  UNL1        0.0335
     59 H           9.3729    0.3361   -1.7800 H       1  UNL1        0.0335
     60 H           6.8077    2.5052   -0.6478 H       1  UNL1        0.2098
     61 H           8.2860    3.8550   -2.9067 H       1  UNL1        0.0290
     62 H           9.6651    2.7627   -2.9971 H       1  UNL1        0.0290
     63 H           8.4936    4.1452   -0.5670 H       1  UNL1        0.0274
     64 H          10.0640    4.4299   -1.3129 H       1  UNL1        0.0274
     65 H          11.1703    1.6669   -1.6883 H       1  UNL1        0.0238
     66 H          11.7895    1.3575   -0.0687 H       1  UNL1        0.0238
     67 H          12.0242    2.9409   -0.8312 H       1  UNL1        0.0238
     68 H          11.4994    3.1633    1.3866 H       1  UNL1        0.0312
     69 H          10.4653    5.3250    0.5080 H       1  UNL1        0.0268
     70 H          11.0645    5.2018    2.1215 H       1  UNL1        0.0268
     71 H           8.1630    4.7987    1.3685 H       1  UNL1        0.0271
     72 H           8.8066    6.3155    1.9245 H       1  UNL1        0.0271
     73 H           8.5159    6.8630    4.1861 H       1  UNL1        0.0235
     74 H          10.1942    6.3042    4.1744 H       1  UNL1        0.0235
     75 H           9.0899    5.7725    5.4469 H       1  UNL1        0.0235
@<TRIPOS>BOND
     1     1     2    1
     2     2     3    1
     3     2     4    1
     4     4     5    1
     5     4     6    1
     6     4     7    1
     7     7     8    1
     8     8     9    1
     9     9    10    1
    10     9    11    1
    11     9    12    1
    12    12    13    1
    13    12    14    1
    14    14    15    1
    15    15    16    1
    16    16    17    1
    17    17    18    1
    18    18    19    1
    19    19    20    2
    20    20    21    1
    21    21    22    1
    22    22    23    1
    23    22    24    1
    24    22    25    1
    25    25    26    1
    26    26    27    1
    27    20    27    1
    28    27    28    1
    29    27    29    1
    30    17    29    1
    31    29    30    1
    32    30    31    1
    33    31    32    1
    34    12    32    1
    35    16    32    1
    36    32    33    1
    37     1    34    1
    38     1    35    1
    39     1    36    1
    40     2    37    1
    41     3    38    1
    42     3    39    1
    43     3    40    1
    44     6    41    1
    45     7    42    1
    46     7    43    1
    47     8    44    1
    48     8    45    1
    49    11    46    1
    50    11    47    1
    51    11    48    1
    52    14    49    1
    53    14    50    1
    54    15    51    1
    55    15    52    1
    56    16    53    1
    57    17    54    1
    58    18    55    1
    59    18    56    1
    60    19    57    1
    61    21    58    1
    62    21    59    1
    63    24    60    1
    64    25    61    1
    65    25    62    1
    66    26    63    1
    67    26    64    1
    68    28    65    1
    69    28    66    1
    70    28    67    1
    71    29    68    1
    72    30    69    1
    73    30    70    1
    74    31    71    1
    75    31    72    1
    76    33    73    1
    77    33    74    1
    78    33    75    1
