@<TRIPOS>MOLECULE
*****
 75 78 0 0 0
SMALL
GASTEIGER

@<TRIPOS>ATOM
      1 C           2.0348    0.0474    2.1191 C.3     1  UNL1       -0.0603
      2 C           3.2950    0.6088    1.4567 C.3     1  UNL1       -0.0206
      3 C           3.6450   -0.2546    0.2348 C.3     1  UNL1        0.0468
      4 O           4.7556    0.2804   -0.4781 O.3     1  UNL1       -0.3947
      5 C           4.4948    0.7101    2.4258 C.3     1  UNL1       -0.0484
      6 C           4.1630    1.3795    3.7671 C.3     1  UNL1       -0.0525
      7 C           5.4062    1.6560    4.6329 C.3     1  UNL1       -0.0502
      8 C           6.3543    2.7820    4.1236 C.3     1  UNL1       -0.0405
      9 H           6.6859    2.5005    3.1272 H       1  UNL1        0.0301
     10 C           5.5242    4.0733    4.0030 C.3     1  UNL1       -0.0621
     11 C           7.6174    2.9991    5.0319 C.3     1  UNL1       -0.0328
     12 H           7.2209    3.5366    5.9068 H       1  UNL1        0.0309
     13 C           8.2648    1.6985    5.5965 C.3     1  UNL1       -0.0492
     14 C           9.7487    1.6870    5.2247 C.3     1  UNL1       -0.0492
     15 C           9.9187    2.7325    4.1253 C.3     1  UNL1       -0.0320
     16 C           9.8900    2.1694    2.6654 C.3     1  UNL1       -0.0307
     17 C           8.9646    0.9545    2.4339 C.3     1  UNL1       -0.0311
     18 C           8.3909    0.7952    1.0640 C.2     1  UNL1       -0.0839
     19 C           8.6736    1.5937    0.0255 C.2     1  UNL1       -0.0648
     20 C           7.9455    1.4646   -1.2864 C.3     1  UNL1       -0.0051
     21 C           7.1223    2.7309   -1.5569 C.3     1  UNL1        0.0590
     22 H           6.7983    2.7169   -2.6037 H       1  UNL1        0.0596
     23 O           5.9251    2.7690   -0.7730 O.3     1  UNL1       -0.3915
     24 C           7.8929    4.0294   -1.2780 C.3     1  UNL1       -0.0258
     25 C           9.3775    3.8195   -0.9469 C.3     1  UNL1       -0.0413
     26 C           9.6830    2.7240    0.1255 C.3     1  UNL1       -0.0078
     27 C          11.0780    2.1404   -0.2304 C.3     1  UNL1       -0.0556
     28 C           9.7387    3.2932    1.5955 C.3     1  UNL1       -0.0285
     29 C           8.5745    4.2302    1.9478 C.3     1  UNL1       -0.0486
     30 C           8.7242    4.8172    3.3422 C.3     1  UNL1       -0.0468
     31 C           8.8621    3.8111    4.4913 C.3     1  UNL1       -0.0259
     32 C           9.3905    4.6489    5.7031 C.3     1  UNL1       -0.0590
     33 H           1.2289   -0.0696    1.3861 H       1  UNL1        0.0233
     34 H           1.6607    0.7182    2.8987 H       1  UNL1        0.0233
     35 H           2.2268   -0.9319    2.5701 H       1  UNL1        0.0233
     36 H           3.0752    1.6253    1.1042 H       1  UNL1        0.0320
     37 H           3.8939   -1.2771    0.5397 H       1  UNL1        0.0560
     38 H           2.7959   -0.2984   -0.4560 H       1  UNL1        0.0560
     39 H           4.9014   -0.3223   -1.2303 H       1  UNL1        0.2094
     40 H           5.2919    1.2668    1.9219 H       1  UNL1        0.0269
     41 H           4.8923   -0.2934    2.6251 H       1  UNL1        0.0269
     42 H           3.5165    0.7040    4.3415 H       1  UNL1        0.0265
     43 H           3.5810    2.2921    3.6084 H       1  UNL1        0.0265
     44 H           5.9349    0.7037    4.7142 H       1  UNL1        0.0268
     45 H           5.0708    1.9131    5.6460 H       1  UNL1        0.0268
     46 H           4.8154    4.0049    3.1715 H       1  UNL1        0.0233
     47 H           6.1193    4.9599    3.8118 H       1  UNL1        0.0233
     48 H           4.9569    4.2633    4.9207 H       1  UNL1        0.0233
     49 H           7.8154    0.7787    5.2251 H       1  UNL1        0.0268
     50 H           8.1565    1.6675    6.6875 H       1  UNL1        0.0268
     51 H          10.0940    0.6904    4.9327 H       1  UNL1        0.0268
     52 H          10.3428    1.9670    6.1034 H       1  UNL1        0.0268
     53 H          10.9191    3.1771    4.2347 H       1  UNL1        0.0309
     54 H          10.9028    1.7618    2.5246 H       1  UNL1        0.0309
     55 H           8.1136    0.9719    3.1074 H       1  UNL1        0.0310
     56 H           9.5158    0.0377    2.6797 H       1  UNL1        0.0310
     57 H           7.6463    0.0089    0.9536 H       1  UNL1        0.0572
     58 H           7.2967    0.5820   -1.2913 H       1  UNL1        0.0335
     59 H           8.6796    1.3161   -2.0878 H       1  UNL1        0.0335
     60 H           5.6012    1.8538   -0.6299 H       1  UNL1        0.2098
     61 H           7.3991    4.6013   -0.4864 H       1  UNL1        0.0290
     62 H           7.8313    4.6701   -2.1673 H       1  UNL1        0.0290
     63 H           9.8320    4.7748   -0.6563 H       1  UNL1        0.0274
     64 H           9.8688    3.5511   -1.8933 H       1  UNL1        0.0274
     65 H          11.1004    1.7495   -1.2551 H       1  UNL1        0.0238
     66 H          11.3670    1.3112    0.4234 H       1  UNL1        0.0238
     67 H          11.8534    2.9115   -0.1562 H       1  UNL1        0.0238
     68 H          10.6482    3.9105    1.6599 H       1  UNL1        0.0312
     69 H           7.6115    3.7374    1.8162 H       1  UNL1        0.0268
     70 H           8.5766    5.0859    1.2647 H       1  UNL1        0.0268
     71 H           7.9411    5.5516    3.5386 H       1  UNL1        0.0271
     72 H           9.6416    5.4257    3.3113 H       1  UNL1        0.0271
     73 H           8.6875    5.4540    5.9481 H       1  UNL1        0.0235
     74 H          10.3590    5.1105    5.4785 H       1  UNL1        0.0235
     75 H           9.5200    4.0477    6.6090 H       1  UNL1        0.0235
@<TRIPOS>BOND
     1     1     2    1
     2     2     3    1
     3     3     4    1
     4     2     5    1
     5     5     6    1
     6     6     7    1
     7     7     8    1
     8     8     9    1
     9     8    10    1
    10     8    11    1
    11    11    12    1
    12    11    13    1
    13    13    14    1
    14    14    15    1
    15    15    16    1
    16    16    17    1
    17    17    18    1
    18    18    19    2
    19    19    20    1
    20    20    21    1
    21    21    22    1
    22    21    23    1
    23    21    24    1
    24    24    25    1
    25    25    26    1
    26    19    26    1
    27    26    27    1
    28    26    28    1
    29    16    28    1
    30    28    29    1
    31    29    30    1
    32    30    31    1
    33    11    31    1
    34    15    31    1
    35    31    32    1
    36     1    33    1
    37     1    34    1
    38     1    35    1
    39     2    36    1
    40     3    37    1
    41     3    38    1
    42     4    39    1
    43     5    40    1
    44     5    41    1
    45     6    42    1
    46     6    43    1
    47     7    44    1
    48     7    45    1
    49    10    46    1
    50    10    47    1
    51    10    48    1
    52    13    49    1
    53    13    50    1
    54    14    51    1
    55    14    52    1
    56    15    53    1
    57    16    54    1
    58    17    55    1
    59    17    56    1
    60    18    57    1
    61    20    58    1
    62    20    59    1
    63    23    60    1
    64    24    61    1
    65    24    62    1
    66    25    63    1
    67    25    64    1
    68    27    65    1
    69    27    66    1
    70    27    67    1
    71    28    68    1
    72    29    69    1
    73    29    70    1
    74    30    71    1
    75    30    72    1
    76    32    73    1
    77    32    74    1
    78    32    75    1
