@<TRIPOS>MOLECULE
*****
 19 20 0 0 0
SMALL
GASTEIGER

@<TRIPOS>ATOM
      1 C           0.9254   -0.0540   -0.0103 C.3     1  UNL1       -0.0377
      2 C           2.4108   -0.0530   -0.0103 C.ar    1  UNL1       -0.0254
      3 C           3.2344    1.0553   -0.0102 C.ar    1  UNL1        0.0056
      4 N           4.5341    0.6256   -0.0103 N.ar    1  UNL1       -0.3604
      5 H           5.3464    1.2261   -0.0102 H       1  UNL1        0.1653
      6 C           4.5818   -0.7485   -0.0104 C.ar    1  UNL1        0.0467
      7 C           5.6826   -1.6139   -0.0105 C.ar    1  UNL1       -0.0378
      8 C           5.4261   -2.9881   -0.0106 C.ar    1  UNL1       -0.0598
      9 C           4.1210   -3.4743   -0.0106 C.ar    1  UNL1       -0.0611
     10 C           3.0322   -2.5945   -0.0106 C.ar    1  UNL1       -0.0523
     11 C           3.2630   -1.2034   -0.0104 C.ar    1  UNL1        0.0026
     12 H           0.5267    0.9656   -0.0102 H       1  UNL1        0.0278
     13 H           0.5435   -0.5671    0.8781 H       1  UNL1        0.0278
     14 H           0.5435   -0.5669   -0.8988 H       1  UNL1        0.0278
     15 H           3.0049    2.1125   -0.0101 H       1  UNL1        0.0810
     16 H           6.7003   -1.2383   -0.0105 H       1  UNL1        0.0638
     17 H           6.2592   -3.6872   -0.0107 H       1  UNL1        0.0618
     18 H           3.9434   -4.5467   -0.0107 H       1  UNL1        0.0618
     19 H           2.0184   -2.9831   -0.0106 H       1  UNL1        0.0624
@<TRIPOS>BOND
     1     1     2    1
     2     2     3   ar
     3     3     4   ar
     4     4     5    1
     5     4     6   ar
     6     6     7   ar
     7     7     8   ar
     8     8     9   ar
     9     9    10   ar
    10    10    11   ar
    11     2    11   ar
    12     6    11   ar
    13     1    12    1
    14     1    13    1
    15     1    14    1
    16     3    15    1
    17     7    16    1
    18     8    17    1
    19     9    18    1
    20    10    19    1
