@<TRIPOS>MOLECULE
*****
 151 151 0 0 0
SMALL
GASTEIGER

@<TRIPOS>ATOM
      1 C           1.0666    0.0527    0.3195 C.3     1  UNL1       -0.0653
      2 C           2.5253    0.3124   -0.0263 C.3     1  UNL1       -0.0559
      3 C           3.0955   -0.7770   -0.9378 C.3     1  UNL1       -0.0533
      4 C           4.5444   -0.4756   -1.3365 C.3     1  UNL1       -0.0531
      5 C           5.1404   -1.5924   -2.2020 C.3     1  UNL1       -0.0531
      6 C           6.5739   -1.2672   -2.6425 C.3     1  UNL1       -0.0531
      7 C           7.1837   -2.3957   -3.4856 C.3     1  UNL1       -0.0531
      8 C           8.6229   -2.0775   -3.9179 C.3     1  UNL1       -0.0531
      9 C           9.2328   -3.2059   -4.7639 C.3     1  UNL1       -0.0531
     10 C          10.6788   -2.8982   -5.1851 C.3     1  UNL1       -0.0531
     11 C          11.3038   -4.0470   -5.9941 C.3     1  UNL1       -0.0531
     12 C          12.7336   -3.7220   -6.4593 C.3     1  UNL1       -0.0530
     13 C          13.4088   -4.9196   -7.1502 C.3     1  UNL1       -0.0526
     14 C          14.8021   -4.5682   -7.7002 C.3     1  UNL1       -0.0430
     15 C          15.5411   -5.7979   -8.2504 C.3     1  UNL1        0.0449
     16 C          16.9160   -5.4591   -8.8031 C.2     1  UNL1        0.3072
     17 O          17.2724   -4.3482   -9.1771 O.2     1  UNL1       -0.2509
     18 O          17.6962   -6.5786   -8.8518 O.3     1  UNL1       -0.4608
     19 C          19.0897   -6.4064   -9.1864 C.3     1  UNL1        0.1315
     20 C          19.4185   -6.7467  -10.6513 C.3     1  UNL1        0.1605
     21 H          19.0169   -7.7462  -10.8618 H       1  UNL1        0.0792
     22 C          18.8205   -5.7206  -11.6209 C.3     1  UNL1        0.0993
     23 O          17.4902   -6.0770  -11.9799 O.3     1  UNL1       -0.2828
     24 P          16.9136   -5.3221  -13.4258 P.3     1  UNL1        0.4752
     25 O          17.9458   -6.0668  -14.2799 O.2     1  UNL1       -0.2273
     26 O          15.6040   -6.2846  -13.4073 O.3     1  UNL1       -0.3025
     27 O          16.3369   -4.5673  -14.8717 O.3     1  UNL1       -0.2813
     28 C          17.1611   -3.5227  -15.3717 C.3     1  UNL1        0.0989
     29 C          18.1562   -4.0878  -16.3976 C.3     1  UNL1       -0.0063
     30 N          18.5897   -3.0812  -17.4899 N.4     1  UNL1        0.2385
     31 C          19.1812   -1.8165  -16.8886 C.3     1  UNL1       -0.0417
     32 C          19.6657   -3.7654  -18.3409 C.3     1  UNL1       -0.0417
     33 C          17.4185   -2.7315  -18.4039 C.3     1  UNL1       -0.0417
     34 O          20.8661   -6.7275  -10.8203 O.3     1  UNL1       -0.4555
     35 C          21.3555   -7.5297  -11.8174 C.2     1  UNL1        0.3075
     36 O          20.6775   -8.3032  -12.4788 O.2     1  UNL1       -0.2508
     37 C          22.8215   -7.2333  -12.0807 C.3     1  UNL1        0.0451
     38 C          23.4977   -8.3521  -12.8888 C.3     1  UNL1       -0.0390
     39 C          24.9487   -8.0128  -13.2806 C.3     1  UNL1       -0.0075
     40 C          25.6122   -8.8954  -14.3924 C.3     1  UNL1        0.1455
     41 C          25.6045   -8.1609  -15.7713 C.3     1  UNL1       -0.0080
     42 C          24.2638   -7.9097  -16.4628 C.3     1  UNL1       -0.0491
     43 C          24.1255   -8.6061  -17.8229 C.3     1  UNL1       -0.0529
     44 C          24.9758   -7.9896  -18.9455 C.3     1  UNL1       -0.0531
     45 C          24.6061   -8.6251  -20.2914 C.3     1  UNL1       -0.0531
     46 C          25.3671   -8.0357  -21.4853 C.3     1  UNL1       -0.0531
     47 C          24.7940   -8.5934  -22.7945 C.3     1  UNL1       -0.0531
     48 C          25.5726   -8.1568  -24.0388 C.3     1  UNL1       -0.0531
     49 C          24.8065   -8.5413  -25.3109 C.3     1  UNL1       -0.0531
     50 C          25.6445   -8.3921  -26.5857 C.3     1  UNL1       -0.0531
     51 C          24.7869   -7.9267  -27.7672 C.3     1  UNL1       -0.0533
     52 C          25.5064   -8.1035  -29.1043 C.3     1  UNL1       -0.0559
     53 C          24.7432   -7.4367  -30.2392 C.3     1  UNL1       -0.0653
     54 O          27.0288   -8.9367  -14.0700 O.3     1  UNL1       -0.3550
     55 C          27.4380  -10.3194  -14.0655 C.3     1  UNL1        0.0702
     56 C          26.2838  -11.1513  -14.6330 C.3     1  UNL1        0.0675
     57 C          26.1389  -12.4798  -13.8778 C.3     1  UNL1       -0.0424
     58 C          26.4909  -11.4753  -16.1236 C.3     1  UNL1       -0.0424
     59 N          25.1478  -10.2835  -14.3077 N.4     1  UNL1       -0.1517
     60 O          24.0209  -10.5691  -15.1586 O.3     1  UNL1       -0.3091
     61 H           0.6910    0.8325    0.9901 H       1  UNL1        0.0230
     62 H           0.9453   -0.9127    0.8210 H       1  UNL1        0.0230
     63 H           0.4440    0.0534   -0.5810 H       1  UNL1        0.0230
     64 H           3.1091    0.3625    0.9003 H       1  UNL1        0.0263
     65 H           2.6075    1.2905   -0.5143 H       1  UNL1        0.0263
     66 H           3.0468   -1.7441   -0.4225 H       1  UNL1        0.0265
     67 H           2.4782   -0.8606   -1.8405 H       1  UNL1        0.0265
     68 H           5.1541   -0.3487   -0.4337 H       1  UNL1        0.0265
     69 H           4.5787    0.4733   -1.8855 H       1  UNL1        0.0265
     70 H           5.1348   -2.5315   -1.6354 H       1  UNL1        0.0265
     71 H           4.5115   -1.7452   -3.0873 H       1  UNL1        0.0265
     72 H           7.1970   -1.0942   -1.7567 H       1  UNL1        0.0265
     73 H           6.5728   -0.3368   -3.2233 H       1  UNL1        0.0265
     74 H           6.5629   -2.5620   -4.3742 H       1  UNL1        0.0265
     75 H           7.1748   -3.3270   -2.9063 H       1  UNL1        0.0265
     76 H           8.6327   -1.1435   -4.4927 H       1  UNL1        0.0265
     77 H           9.2411   -1.9148   -3.0267 H       1  UNL1        0.0265
     78 H           8.6186   -3.3605   -5.6593 H       1  UNL1        0.0265
     79 H           9.2104   -4.1410   -4.1914 H       1  UNL1        0.0265
     80 H          11.2860   -2.7153   -4.2901 H       1  UNL1        0.0265
     81 H          10.6957   -1.9775   -5.7806 H       1  UNL1        0.0265
     82 H          11.3152   -4.9551   -5.3794 H       1  UNL1        0.0265
     83 H          10.6792   -4.2584   -6.8706 H       1  UNL1        0.0265
     84 H          13.3383   -3.4194   -5.5958 H       1  UNL1        0.0265
     85 H          12.7035   -2.8685   -7.1472 H       1  UNL1        0.0265
     86 H          12.7760   -5.2747   -7.9725 H       1  UNL1        0.0265
     87 H          13.4956   -5.7433   -6.4312 H       1  UNL1        0.0265
     88 H          15.4070   -4.1085   -6.9089 H       1  UNL1        0.0270
     89 H          14.6978   -3.8160   -8.4919 H       1  UNL1        0.0270
     90 H          14.9603   -6.2670   -9.0516 H       1  UNL1        0.0377
     91 H          15.6680   -6.5231   -7.4378 H       1  UNL1        0.0377
     92 H          19.6477   -7.0912   -8.5363 H       1  UNL1        0.0736
     93 H          19.4489   -5.4043   -8.9204 H       1  UNL1        0.0736
     94 H          19.4452   -5.6577  -12.5176 H       1  UNL1        0.0604
     95 H          18.8173   -4.7135  -11.1921 H       1  UNL1        0.0604
     96 H          15.8289   -7.1261  -13.8471 H       1  UNL1        0.2220
     97 H          17.6864   -3.0288  -14.5468 H       1  UNL1        0.0619
     98 H          16.4845   -2.7884  -15.8126 H       1  UNL1        0.0619
     99 H          17.7382   -4.9584  -16.9170 H       1  UNL1        0.0838
    100 H          19.0735   -4.4039  -15.8871 H       1  UNL1        0.0838
    101 H          20.0069   -2.0999  -16.2296 H       1  UNL1        0.0778
    102 H          18.4026   -1.2947  -16.3259 H       1  UNL1        0.0778
    103 H          19.5411   -1.1808  -17.7033 H       1  UNL1        0.0778
    104 H          20.5131   -4.0119  -17.6942 H       1  UNL1        0.0778
    105 H          19.9777   -3.0718  -19.1276 H       1  UNL1        0.0778
    106 H          19.2364   -4.6718  -18.7777 H       1  UNL1        0.0778
    107 H          16.6895   -2.1429  -17.8427 H       1  UNL1        0.0778
    108 H          16.9707   -3.6611  -18.7661 H       1  UNL1        0.0778
    109 H          17.8004   -2.1391  -19.2410 H       1  UNL1        0.0778
    110 H          23.3413   -7.0948  -11.1274 H       1  UNL1        0.0377
    111 H          22.8612   -6.2948  -12.6461 H       1  UNL1        0.0377
    112 H          22.8983   -8.5592  -13.7786 H       1  UNL1        0.0272
    113 H          23.4931   -9.2701  -12.2865 H       1  UNL1        0.0272
    114 H          25.5582   -8.0661  -12.3673 H       1  UNL1        0.0307
    115 H          24.9964   -6.9607  -13.5905 H       1  UNL1        0.0307
    116 H          26.3061   -8.6417  -16.4574 H       1  UNL1        0.0307
    117 H          26.0757   -7.1783  -15.6125 H       1  UNL1        0.0307
    118 H          24.1346   -6.8297  -16.6073 H       1  UNL1        0.0267
    119 H          23.4310   -8.2225  -15.8306 H       1  UNL1        0.0267
    120 H          23.0694   -8.5495  -18.1151 H       1  UNL1        0.0265
    121 H          24.3650   -9.6713  -17.7251 H       1  UNL1        0.0265
    122 H          24.7997   -6.9085  -18.9913 H       1  UNL1        0.0265
    123 H          26.0424   -8.1394  -18.7443 H       1  UNL1        0.0265
    124 H          23.5291   -8.4979  -20.4577 H       1  UNL1        0.0265
    125 H          24.7953   -9.7050  -20.2455 H       1  UNL1        0.0265
    126 H          26.4332   -8.2768  -21.4033 H       1  UNL1        0.0265
    127 H          25.2767   -6.9428  -21.4855 H       1  UNL1        0.0265
    128 H          24.7861   -9.6898  -22.7523 H       1  UNL1        0.0265
    129 H          23.7490   -8.2715  -22.8867 H       1  UNL1        0.0265
    130 H          26.5645   -8.6233  -24.0337 H       1  UNL1        0.0265
    131 H          25.7215   -7.0702  -24.0279 H       1  UNL1        0.0265
    132 H          23.9023   -7.9230  -25.3706 H       1  UNL1        0.0265
    133 H          24.4678   -9.5830  -25.2413 H       1  UNL1        0.0265
    134 H          26.1080   -9.3596  -26.8165 H       1  UNL1        0.0265
    135 H          26.4613   -7.6762  -26.4365 H       1  UNL1        0.0265
    136 H          23.8423   -8.4836  -27.7934 H       1  UNL1        0.0265
    137 H          24.5322   -6.8695  -27.6195 H       1  UNL1        0.0265
    138 H          25.6107   -9.1732  -29.3217 H       1  UNL1        0.0263
    139 H          26.5166   -7.6820  -29.0544 H       1  UNL1        0.0263
    140 H          23.7122   -7.8006  -30.2923 H       1  UNL1        0.0230
    141 H          25.2281   -7.6452  -31.1981 H       1  UNL1        0.0230
    142 H          24.7168   -6.3504  -30.1035 H       1  UNL1        0.0230
    143 H          27.6741  -10.5782  -13.0274 H       1  UNL1        0.0580
    144 H          28.3559  -10.4060  -14.6564 H       1  UNL1        0.0580
    145 H          27.0266  -13.1080  -14.0154 H       1  UNL1        0.0249
    146 H          25.2687  -13.0461  -14.2295 H       1  UNL1        0.0249
    147 H          26.0159  -12.3206  -12.8000 H       1  UNL1        0.0249
    148 H          27.3587  -12.1325  -16.2564 H       1  UNL1        0.0249
    149 H          26.6739  -10.5956  -16.7395 H       1  UNL1        0.0249
    150 H          25.6251  -12.0008  -16.5434 H       1  UNL1        0.0249
    151 H          23.3777  -10.9333  -14.5197 H       1  UNL1        0.2367
@<TRIPOS>BOND
     1     1     2    1
     2     2     3    1
     3     3     4    1
     4     4     5    1
     5     5     6    1
     6     6     7    1
     7     7     8    1
     8     8     9    1
     9     9    10    1
    10    10    11    1
    11    11    12    1
    12    12    13    1
    13    13    14    1
    14    14    15    1
    15    15    16    1
    16    16    17    2
    17    16    18    1
    18    18    19    1
    19    19    20    1
    20    20    21    1
    21    20    22    1
    22    22    23    1
    23    23    24    1
    24    24    25    2
    25    24    26    1
    26    24    27    1
    27    27    28    1
    28    28    29    1
    29    29    30    1
    30    30    31    1
    31    30    32    1
    32    30    33    1
    33    20    34    1
    34    34    35    1
    35    35    36    2
    36    35    37    1
    37    37    38    1
    38    38    39    1
    39    39    40    1
    40    40    41    1
    41    41    42    1
    42    42    43    1
    43    43    44    1
    44    44    45    1
    45    45    46    1
    46    46    47    1
    47    47    48    1
    48    48    49    1
    49    49    50    1
    50    50    51    1
    51    51    52    1
    52    52    53    1
    53    40    54    1
    54    54    55    1
    55    55    56    1
    56    56    57    1
    57    56    58    1
    58    56    59    1
    59    40    59    1
    60    59    60    1
    61     1    61    1
    62     1    62    1
    63     1    63    1
    64     2    64    1
    65     2    65    1
    66     3    66    1
    67     3    67    1
    68     4    68    1
    69     4    69    1
    70     5    70    1
    71     5    71    1
    72     6    72    1
    73     6    73    1
    74     7    74    1
    75     7    75    1
    76     8    76    1
    77     8    77    1
    78     9    78    1
    79     9    79    1
    80    10    80    1
    81    10    81    1
    82    11    82    1
    83    11    83    1
    84    12    84    1
    85    12    85    1
    86    13    86    1
    87    13    87    1
    88    14    88    1
    89    14    89    1
    90    15    90    1
    91    15    91    1
    92    19    92    1
    93    19    93    1
    94    22    94    1
    95    22    95    1
    96    26    96    1
    97    28    97    1
    98    28    98    1
    99    29    99    1
   100    29   100    1
   101    31   101    1
   102    31   102    1
   103    31   103    1
   104    32   104    1
   105    32   105    1
   106    32   106    1
   107    33   107    1
   108    33   108    1
   109    33   109    1
   110    37   110    1
   111    37   111    1
   112    38   112    1
   113    38   113    1
   114    39   114    1
   115    39   115    1
   116    41   116    1
   117    41   117    1
   118    42   118    1
   119    42   119    1
   120    43   120    1
   121    43   121    1
   122    44   122    1
   123    44   123    1
   124    45   124    1
   125    45   125    1
   126    46   126    1
   127    46   127    1
   128    47   128    1
   129    47   129    1
   130    48   130    1
   131    48   131    1
   132    49   132    1
   133    49   133    1
   134    50   134    1
   135    50   135    1
   136    51   136    1
   137    51   137    1
   138    52   138    1
   139    52   139    1
   140    53   140    1
   141    53   141    1
   142    53   142    1
   143    55   143    1
   144    55   144    1
   145    57   145    1
   146    57   146    1
   147    57   147    1
   148    58   148    1
   149    58   149    1
   150    58   150    1
   151    60   151    1
