@<TRIPOS>MOLECULE
*****
 151 151 0 0 0
SMALL
GASTEIGER

@<TRIPOS>ATOM
      1 C         -18.3788    8.6084   -0.0770 C.3     1  UNL1       -0.0653
      2 C         -16.9145    8.8831   -0.3747 C.3     1  UNL1       -0.0559
      3 C         -16.1645    7.6223   -0.8188 C.3     1  UNL1       -0.0533
      4 C         -14.7376    7.9765   -1.2369 C.3     1  UNL1       -0.0531
      5 C         -13.8409    6.7542   -1.4819 C.3     1  UNL1       -0.0531
      6 C         -12.4843    7.2210   -2.0216 C.3     1  UNL1       -0.0531
      7 C         -11.2864    6.3561   -1.6310 C.3     1  UNL1       -0.0531
      8 C         -11.0935    5.0640   -2.4390 C.3     1  UNL1       -0.0531
      9 C          -9.5907    4.8293   -2.6553 C.3     1  UNL1       -0.0531
     10 C          -9.2137    3.4419   -3.1838 C.3     1  UNL1       -0.0531
     11 C          -7.7556    3.4556   -3.6693 C.3     1  UNL1       -0.0531
     12 C          -7.1069    2.0690   -3.7447 C.3     1  UNL1       -0.0530
     13 C          -5.7510    2.1514   -4.4604 C.3     1  UNL1       -0.0526
     14 C          -4.8461    0.9392   -4.2023 C.3     1  UNL1       -0.0430
     15 C          -3.6486    0.9473   -5.1550 C.3     1  UNL1        0.0449
     16 C          -2.4040    0.2923   -4.5920 C.2     1  UNL1        0.3072
     17 O          -1.8802    0.5885   -3.5290 O.2     1  UNL1       -0.2509
     18 O          -1.8883   -0.5853   -5.4961 O.3     1  UNL1       -0.4608
     19 C          -0.5253   -0.9863   -5.2756 C.3     1  UNL1        0.1315
     20 C          -0.0335   -1.9440   -6.3846 C.3     1  UNL1        0.1605
     21 H          -0.4522   -2.9381   -6.1823 H       1  UNL1        0.0792
     22 C          -0.4723   -1.4727   -7.7798 C.3     1  UNL1        0.0993
     23 O          -1.8845   -1.6036   -7.9814 O.3     1  UNL1       -0.2828
     24 P          -2.4612   -1.5825   -9.6123 P.3     1  UNL1        0.4752
     25 O          -1.3745   -0.5904  -10.0398 O.2     1  UNL1       -0.2273
     26 O          -1.8940   -3.1020   -9.7995 O.3     1  UNL1       -0.3025
     27 O          -3.0378   -1.5614  -11.2432 O.3     1  UNL1       -0.2813
     28 C          -2.2908   -2.1443  -12.3055 C.3     1  UNL1        0.0989
     29 C          -1.0920   -1.2830  -12.7230 C.3     1  UNL1       -0.0063
     30 N          -0.5259   -1.6199  -14.1304 N.4     1  UNL1        0.2385
     31 C           0.6632   -0.6876  -14.3755 C.3     1  UNL1       -0.0417
     32 C          -0.0333   -3.0583  -14.1863 C.3     1  UNL1       -0.0417
     33 C          -1.5553   -1.3741  -15.2251 C.3     1  UNL1       -0.0417
     34 O           1.4219   -1.9877   -6.3319 O.3     1  UNL1       -0.4555
     35 C           2.0344   -3.0314   -6.9695 C.2     1  UNL1        0.3075
     36 O           1.4414   -3.9722   -7.4794 O.2     1  UNL1       -0.2508
     37 C           3.5286   -2.7809   -7.0964 C.3     1  UNL1        0.0450
     38 C           4.3903   -4.0519   -7.0086 C.3     1  UNL1       -0.0430
     39 C           5.4906   -4.0983   -8.0862 C.3     1  UNL1       -0.0526
     40 C           6.4946   -5.2427   -7.8535 C.3     1  UNL1       -0.0530
     41 C           7.5231   -5.3576   -8.9918 C.3     1  UNL1       -0.0531
     42 C           8.6298   -6.3875   -8.6924 C.3     1  UNL1       -0.0531
     43 C           9.6260   -6.5048   -9.8575 C.3     1  UNL1       -0.0531
     44 C          10.8594   -7.3713   -9.5306 C.3     1  UNL1       -0.0531
     45 C          11.8484   -7.3722  -10.7082 C.3     1  UNL1       -0.0531
     46 C          13.2387   -7.9602  -10.3989 C.3     1  UNL1       -0.0531
     47 C          13.4598   -9.3843  -10.9352 C.3     1  UNL1       -0.0531
     48 C          14.9465   -9.6571  -11.2503 C.3     1  UNL1       -0.0529
     49 C          15.1681  -11.0692  -11.8173 C.3     1  UNL1       -0.0491
     50 C          16.2952  -11.1642  -12.8683 C.3     1  UNL1       -0.0080
     51 C          17.7601  -11.2066  -12.3635 C.3     1  UNL1        0.1452
     52 C          18.7394  -11.2227  -13.5780 C.3     1  UNL1       -0.0108
     53 C          18.6361  -10.0172  -14.5104 C.3     1  UNL1       -0.0613
     54 O          18.0416  -10.0371  -11.5894 O.3     1  UNL1       -0.3550
     55 C          18.9274  -10.4423  -10.5242 C.3     1  UNL1        0.0702
     56 C          18.9803  -11.9821  -10.4970 C.3     1  UNL1        0.0675
     57 C          18.5749  -12.5196   -9.1164 C.3     1  UNL1       -0.0424
     58 C          20.3983  -12.5034  -10.7988 C.3     1  UNL1       -0.0424
     59 N          17.9206  -12.3434  -11.4465 N.4     1  UNL1       -0.1518
     60 O          18.2211  -13.5744  -12.1376 O.3     1  UNL1       -0.3091
     61 H         -18.9040    8.2740   -0.9771 H       1  UNL1        0.0230
     62 H         -18.8678    9.5210    0.2796 H       1  UNL1        0.0230
     63 H         -18.4885    7.8405    0.6947 H       1  UNL1        0.0230
     64 H         -16.8477    9.6542   -1.1513 H       1  UNL1        0.0263
     65 H         -16.4390    9.2927    0.5250 H       1  UNL1        0.0263
     66 H         -16.6857    7.1525   -1.6611 H       1  UNL1        0.0265
     67 H         -16.1498    6.8975    0.0035 H       1  UNL1        0.0265
     68 H         -14.7749    8.5942   -2.1431 H       1  UNL1        0.0265
     69 H         -14.2780    8.5920   -0.4523 H       1  UNL1        0.0265
     70 H         -14.3099    6.0715   -2.1998 H       1  UNL1        0.0265
     71 H         -13.7187    6.2064   -0.5407 H       1  UNL1        0.0265
     72 H         -12.5382    7.3290   -3.1117 H       1  UNL1        0.0265
     73 H         -12.2778    8.2263   -1.6310 H       1  UNL1        0.0265
     74 H         -11.3278    6.1133   -0.5619 H       1  UNL1        0.0265
     75 H         -10.3990    6.9904   -1.7573 H       1  UNL1        0.0265
     76 H         -11.5426    4.2223   -1.8996 H       1  UNL1        0.0265
     77 H         -11.5900    5.1307   -3.4137 H       1  UNL1        0.0265
     78 H          -9.0577    4.9869   -1.7085 H       1  UNL1        0.0265
     79 H          -9.2258    5.5952   -3.3525 H       1  UNL1        0.0265
     80 H          -9.3473    2.7033   -2.3851 H       1  UNL1        0.0265
     81 H          -9.8704    3.1530   -4.0125 H       1  UNL1        0.0265
     82 H          -7.1487    4.0767   -2.9977 H       1  UNL1        0.0265
     83 H          -7.7225    3.9369   -4.6552 H       1  UNL1        0.0265
     84 H          -7.7597    1.3709   -4.2813 H       1  UNL1        0.0265
     85 H          -6.9760    1.6799   -2.7282 H       1  UNL1        0.0265
     86 H          -5.2150    3.0534   -4.1383 H       1  UNL1        0.0265
     87 H          -5.9318    2.2601   -5.5374 H       1  UNL1        0.0265
     88 H          -5.4097    0.0090   -4.3426 H       1  UNL1        0.0270
     89 H          -4.5170    0.9542   -3.1567 H       1  UNL1        0.0270
     90 H          -3.3575    1.9712   -5.4202 H       1  UNL1        0.0377
     91 H          -3.9362    0.4527   -6.0910 H       1  UNL1        0.0377
     92 H          -0.4320   -1.4814   -4.3015 H       1  UNL1        0.0736
     93 H           0.1096   -0.0910   -5.2569 H       1  UNL1        0.0736
     94 H           0.0585   -2.0427   -8.5490 H       1  UNL1        0.0604
     95 H          -0.1887   -0.4208   -7.9058 H       1  UNL1        0.0604
     96 H          -2.4874   -3.7666   -9.4012 H       1  UNL1        0.2220
     97 H          -1.9865   -3.1661  -12.0655 H       1  UNL1        0.0619
     98 H          -3.0036   -2.2318  -13.1287 H       1  UNL1        0.0619
     99 H          -0.2600   -1.4170  -12.0236 H       1  UNL1        0.0838
    100 H          -1.3663   -0.2214  -12.7400 H       1  UNL1        0.0838
    101 H           1.4079   -0.8608  -13.5934 H       1  UNL1        0.0778
    102 H           0.3037    0.3453  -14.3458 H       1  UNL1        0.0778
    103 H           1.0848   -0.9155  -15.3593 H       1  UNL1        0.0778
    104 H           0.6872   -3.2108  -13.3777 H       1  UNL1        0.0778
    105 H           0.4409   -3.2230  -15.1587 H       1  UNL1        0.0778
    106 H          -0.8890   -3.7291  -14.0732 H       1  UNL1        0.0778
    107 H          -1.9637   -0.3675  -15.0993 H       1  UNL1        0.0778
    108 H          -2.3439   -2.1266  -15.1518 H       1  UNL1        0.0778
    109 H          -1.0570   -1.4668  -16.1952 H       1  UNL1        0.0778
    110 H           3.8414   -2.0910   -6.3034 H       1  UNL1        0.0377
    111 H           3.6760   -2.2662   -8.0532 H       1  UNL1        0.0377
    112 H           3.7775   -4.9568   -7.0873 H       1  UNL1        0.0270
    113 H           4.8594   -4.0809   -6.0170 H       1  UNL1        0.0270
    114 H           6.0339   -3.1454   -8.0989 H       1  UNL1        0.0265
    115 H           5.0208   -4.2148   -9.0705 H       1  UNL1        0.0265
    116 H           5.9560   -6.1927   -7.7570 H       1  UNL1        0.0265
    117 H           7.0179   -5.0689   -6.9056 H       1  UNL1        0.0265
    118 H           7.9847   -4.3775   -9.1641 H       1  UNL1        0.0265
    119 H           7.0057   -5.6354   -9.9183 H       1  UNL1        0.0265
    120 H           8.1817   -7.3684   -8.4955 H       1  UNL1        0.0265
    121 H           9.1636   -6.0847   -7.7838 H       1  UNL1        0.0265
    122 H           9.9652   -5.4989  -10.1353 H       1  UNL1        0.0265
    123 H           9.1116   -6.9199  -10.7331 H       1  UNL1        0.0265
    124 H          11.3520   -6.9687   -8.6378 H       1  UNL1        0.0265
    125 H          10.5508   -8.3977   -9.3021 H       1  UNL1        0.0265
    126 H          12.0036   -6.3288  -11.0131 H       1  UNL1        0.0265
    127 H          11.3938   -7.8739  -11.5705 H       1  UNL1        0.0265
    128 H          13.4486   -7.9327   -9.3233 H       1  UNL1        0.0265
    129 H          13.9764   -7.2979  -10.8702 H       1  UNL1        0.0265
    130 H          12.8844   -9.5272  -11.8576 H       1  UNL1        0.0265
    131 H          13.0875  -10.1142  -10.2069 H       1  UNL1        0.0265
    132 H          15.2868   -8.9086  -11.9761 H       1  UNL1        0.0265
    133 H          15.5522   -9.5249  -10.3463 H       1  UNL1        0.0265
    134 H          14.2480  -11.3926  -12.3209 H       1  UNL1        0.0267
    135 H          15.3287  -11.7788  -10.9983 H       1  UNL1        0.0267
    136 H          16.1601  -10.3151  -13.5476 H       1  UNL1        0.0307
    137 H          16.1141  -12.0674  -13.4672 H       1  UNL1        0.0307
    138 H          18.5966  -12.1313  -14.1753 H       1  UNL1        0.0304
    139 H          19.7738  -11.2265  -13.2288 H       1  UNL1        0.0304
    140 H          17.6983  -10.0193  -15.0722 H       1  UNL1        0.0231
    141 H          19.4497  -10.0473  -15.2436 H       1  UNL1        0.0231
    142 H          18.7173   -9.0752  -13.9604 H       1  UNL1        0.0231
    143 H          18.5366  -10.0103   -9.5974 H       1  UNL1        0.0580
    144 H          19.9067   -9.9945  -10.7256 H       1  UNL1        0.0580
    145 H          19.2819  -12.1925   -8.3451 H       1  UNL1        0.0249
    146 H          18.5527  -13.6159   -9.1067 H       1  UNL1        0.0249
    147 H          17.5806  -12.1646   -8.8212 H       1  UNL1        0.0249
    148 H          21.1062  -12.1544  -10.0373 H       1  UNL1        0.0249
    149 H          20.7870  -12.1716  -11.7625 H       1  UNL1        0.0249
    150 H          20.4325  -13.5991  -10.7918 H       1  UNL1        0.0249
    151 H          17.4796  -14.1427  -11.8550 H       1  UNL1        0.2367
@<TRIPOS>BOND
     1     1     2    1
     2     2     3    1
     3     3     4    1
     4     4     5    1
     5     5     6    1
     6     6     7    1
     7     7     8    1
     8     8     9    1
     9     9    10    1
    10    10    11    1
    11    11    12    1
    12    12    13    1
    13    13    14    1
    14    14    15    1
    15    15    16    1
    16    16    17    2
    17    16    18    1
    18    18    19    1
    19    19    20    1
    20    20    21    1
    21    20    22    1
    22    22    23    1
    23    23    24    1
    24    24    25    2
    25    24    26    1
    26    24    27    1
    27    27    28    1
    28    28    29    1
    29    29    30    1
    30    30    31    1
    31    30    32    1
    32    30    33    1
    33    20    34    1
    34    34    35    1
    35    35    36    2
    36    35    37    1
    37    37    38    1
    38    38    39    1
    39    39    40    1
    40    40    41    1
    41    41    42    1
    42    42    43    1
    43    43    44    1
    44    44    45    1
    45    45    46    1
    46    46    47    1
    47    47    48    1
    48    48    49    1
    49    49    50    1
    50    50    51    1
    51    51    52    1
    52    52    53    1
    53    51    54    1
    54    54    55    1
    55    55    56    1
    56    56    57    1
    57    56    58    1
    58    56    59    1
    59    51    59    1
    60    59    60    1
    61     1    61    1
    62     1    62    1
    63     1    63    1
    64     2    64    1
    65     2    65    1
    66     3    66    1
    67     3    67    1
    68     4    68    1
    69     4    69    1
    70     5    70    1
    71     5    71    1
    72     6    72    1
    73     6    73    1
    74     7    74    1
    75     7    75    1
    76     8    76    1
    77     8    77    1
    78     9    78    1
    79     9    79    1
    80    10    80    1
    81    10    81    1
    82    11    82    1
    83    11    83    1
    84    12    84    1
    85    12    85    1
    86    13    86    1
    87    13    87    1
    88    14    88    1
    89    14    89    1
    90    15    90    1
    91    15    91    1
    92    19    92    1
    93    19    93    1
    94    22    94    1
    95    22    95    1
    96    26    96    1
    97    28    97    1
    98    28    98    1
    99    29    99    1
   100    29   100    1
   101    31   101    1
   102    31   102    1
   103    31   103    1
   104    32   104    1
   105    32   105    1
   106    32   106    1
   107    33   107    1
   108    33   108    1
   109    33   109    1
   110    37   110    1
   111    37   111    1
   112    38   112    1
   113    38   113    1
   114    39   114    1
   115    39   115    1
   116    40   116    1
   117    40   117    1
   118    41   118    1
   119    41   119    1
   120    42   120    1
   121    42   121    1
   122    43   122    1
   123    43   123    1
   124    44   124    1
   125    44   125    1
   126    45   126    1
   127    45   127    1
   128    46   128    1
   129    46   129    1
   130    47   130    1
   131    47   131    1
   132    48   132    1
   133    48   133    1
   134    49   134    1
   135    49   135    1
   136    50   136    1
   137    50   137    1
   138    52   138    1
   139    52   139    1
   140    53   140    1
   141    53   141    1
   142    53   142    1
   143    55   143    1
   144    55   144    1
   145    57   145    1
   146    57   146    1
   147    57   147    1
   148    58   148    1
   149    58   149    1
   150    58   150    1
   151    60   151    1
