@<TRIPOS>MOLECULE
*****
 50 49 0 0 0
SMALL
GASTEIGER

@<TRIPOS>ATOM
      1 C           1.7093   -0.1021   -0.5886 C.3     1  UNL1       -0.0653
      2 C           3.1811   -0.3575   -0.3045 C.3     1  UNL1       -0.0559
      3 C           3.3686   -1.1972    0.9585 C.3     1  UNL1       -0.0533
      4 C           4.8503   -1.4240    1.2656 C.3     1  UNL1       -0.0531
      5 C           5.0298   -2.2266    2.5552 C.3     1  UNL1       -0.0531
      6 C           6.5082   -2.3933    2.9156 C.3     1  UNL1       -0.0531
      7 C           6.6662   -3.1198    4.2533 C.3     1  UNL1       -0.0531
      8 C           8.1112   -3.1569    4.7552 C.3     1  UNL1       -0.0531
      9 C           9.0144   -4.0941    3.9506 C.3     1  UNL1       -0.0529
     10 C          10.4272   -4.1266    4.5431 C.3     1  UNL1       -0.0483
     11 C          11.3153   -5.1510    3.8279 C.3     1  UNL1       -0.0125
     12 C          12.7562   -5.1708    4.3519 C.3     1  UNL1       -0.0309
     13 N          13.0462   -6.2331    5.4317 N.4     1  UNL1        0.2369
     14 C          12.1361   -6.0994    6.6424 C.3     1  UNL1       -0.0418
     15 C          12.9338   -7.6457    4.8637 C.3     1  UNL1       -0.0418
     16 C          14.4927   -6.0293    5.9020 C.3     1  UNL1       -0.0418
     17 H           1.5970    0.5011   -1.4950 H       1  UNL1        0.0230
     18 H           1.2384    0.4385    0.2389 H       1  UNL1        0.0230
     19 H           1.1688   -1.0424   -0.7364 H       1  UNL1        0.0230
     20 H           3.6961    0.6038   -0.1929 H       1  UNL1        0.0263
     21 H           3.6313   -0.8696   -1.1627 H       1  UNL1        0.0263
     22 H           2.8922   -0.6910    1.8071 H       1  UNL1        0.0265
     23 H           2.8659   -2.1643    0.8365 H       1  UNL1        0.0265
     24 H           5.3551   -0.4551    1.3634 H       1  UNL1        0.0265
     25 H           5.3253   -1.9540    0.4313 H       1  UNL1        0.0265
     26 H           4.5643   -3.2135    2.4440 H       1  UNL1        0.0265
     27 H           4.5102   -1.7155    3.3750 H       1  UNL1        0.0265
     28 H           7.0170   -2.9494    2.1202 H       1  UNL1        0.0265
     29 H           6.9819   -1.4061    2.9772 H       1  UNL1        0.0265
     30 H           6.2705   -4.1396    4.1742 H       1  UNL1        0.0265
     31 H           6.0610   -2.6047    5.0099 H       1  UNL1        0.0265
     32 H           8.0982   -3.4925    5.7999 H       1  UNL1        0.0265
     33 H           8.5297   -2.1431    4.7563 H       1  UNL1        0.0265
     34 H           9.0675   -3.7685    2.9058 H       1  UNL1        0.0265
     35 H           8.5884   -5.1045    3.9566 H       1  UNL1        0.0265
     36 H          10.8764   -3.1293    4.4575 H       1  UNL1        0.0267
     37 H          10.3623   -4.3540    5.6105 H       1  UNL1        0.0267
     38 H          11.3553   -4.8652    2.7684 H       1  UNL1        0.0317
     39 H          10.8491   -6.1394    3.8570 H       1  UNL1        0.0317
     40 H          13.0376   -4.1975    4.7713 H       1  UNL1        0.0815
     41 H          13.4413   -5.3931    3.5247 H       1  UNL1        0.0815
     42 H          11.1169   -6.3625    6.3490 H       1  UNL1        0.0778
     43 H          12.1922   -5.0695    7.0059 H       1  UNL1        0.0778
     44 H          12.4827   -6.7928    7.4151 H       1  UNL1        0.0778
     45 H          11.8916   -7.8485    4.6084 H       1  UNL1        0.0778
     46 H          13.2680   -8.3524    5.6297 H       1  UNL1        0.0778
     47 H          13.5710   -7.7155    3.9776 H       1  UNL1        0.0778
     48 H          14.5779   -5.0268    6.3318 H       1  UNL1        0.0778
     49 H          15.1549   -6.1361    5.0378 H       1  UNL1        0.0778
     50 H          14.7243   -6.7875    6.6563 H       1  UNL1        0.0778
@<TRIPOS>BOND
     1     1     2    1
     2     2     3    1
     3     3     4    1
     4     4     5    1
     5     5     6    1
     6     6     7    1
     7     7     8    1
     8     8     9    1
     9     9    10    1
    10    10    11    1
    11    11    12    1
    12    12    13    1
    13    13    14    1
    14    13    15    1
    15    13    16    1
    16     1    17    1
    17     1    18    1
    18     1    19    1
    19     2    20    1
    20     2    21    1
    21     3    22    1
    22     3    23    1
    23     4    24    1
    24     4    25    1
    25     5    26    1
    26     5    27    1
    27     6    28    1
    28     6    29    1
    29     7    30    1
    30     7    31    1
    31     8    32    1
    32     8    33    1
    33     9    34    1
    34     9    35    1
    35    10    36    1
    36    10    37    1
    37    11    38    1
    38    11    39    1
    39    12    40    1
    40    12    41    1
    41    14    42    1
    42    14    43    1
    43    14    44    1
    44    15    45    1
    45    15    46    1
    46    15    47    1
    47    16    48    1
    48    16    49    1
    49    16    50    1
