@<TRIPOS>MOLECULE
*****
 21 21 0 0 0
SMALL
GASTEIGER

@<TRIPOS>ATOM
      1 C           1.0235    0.4669   -0.2365 C.3     1  UNL1        0.0336
      2 C           2.4921    0.6528   -0.4759 C.2     1  UNL1        0.3092
      3 O           3.0065    0.7572   -1.5798 O.2     1  UNL1       -0.2507
      4 O           3.1454    0.7118    0.7546 O.3     1  UNL1       -0.4252
      5 C           4.5309    0.8552    0.6211 C.ar    1  UNL1        0.1456
      6 C           5.0489    2.1413    0.4460 C.ar    1  UNL1       -0.0184
      7 C           6.4269    2.3144    0.3192 C.ar    1  UNL1       -0.0582
      8 C           7.2797    1.2107    0.3752 C.ar    1  UNL1       -0.0608
      9 C           6.7582   -0.0707    0.5724 C.ar    1  UNL1       -0.0442
     10 C           5.3775   -0.2562    0.7176 C.ar    1  UNL1        0.1010
     11 C           4.8882   -1.6369    0.9520 C.2     1  UNL1        0.3404
     12 O           5.4608   -2.6248    0.5247 O.2     1  UNL1       -0.2450
     13 O           3.7968   -1.7079    1.7447 O.3     1  UNL1       -0.4770
     14 H           0.5263    0.2545   -1.1872 H       1  UNL1        0.0342
     15 H           0.6014    1.3792    0.1915 H       1  UNL1        0.0342
     16 H           0.8594   -0.3831    0.4311 H       1  UNL1        0.0342
     17 H           4.3881    3.0018    0.3873 H       1  UNL1        0.0654
     18 H           6.8380    3.3095    0.1643 H       1  UNL1        0.0619
     19 H           8.3532    1.3468    0.2628 H       1  UNL1        0.0618
     20 H           7.4327   -0.9248    0.6151 H       1  UNL1        0.0627
     21 H           3.5017   -0.8458    2.0951 H       1  UNL1        0.2954
@<TRIPOS>BOND
     1     1     2    1
     2     2     3    2
     3     2     4    1
     4     4     5    1
     5     5     6   ar
     6     6     7   ar
     7     7     8   ar
     8     8     9   ar
     9     9    10   ar
    10     5    10   ar
    11    10    11    1
    12    11    12    2
    13    11    13    1
    14     1    14    1
    15     1    15    1
    16     1    16    1
    17     6    17    1
    18     7    18    1
    19     8    19    1
    20     9    20    1
    21    13    21    1
