@<TRIPOS>MOLECULE
*****
 76 79 0 0 0
SMALL
GASTEIGER

@<TRIPOS>ATOM
      1 C          10.1602    1.6096   -8.0138 C.3     1  UNL1       -0.0573
      2 C           9.6778    2.2466   -6.7105 C.3     1  UNL1       -0.0054
      3 C           9.8153    3.7691   -6.7627 C.3     1  UNL1       -0.0573
      4 C          10.3680    1.6233   -5.5084 C.ar    1  UNL1        0.0345
      5 C          11.5959    1.9137   -4.9134 C.ar    1  UNL1        0.0662
      6 C          11.7426    1.0612   -3.7788 C.ar    1  UNL1        0.0200
      7 C          10.6147    0.2538   -3.7008 C.ar    1  UNL1        0.0578
      8 N           9.7891    0.6031   -4.7593 N.ar    1  UNL1       -0.3422
      9 C           8.4778    0.0072   -5.0281 C.3     1  UNL1        0.0259
     10 C           7.3467    0.7732   -4.3382 C.3     1  UNL1       -0.0087
     11 C           5.9517    0.4011   -4.8488 C.3     1  UNL1        0.0592
     12 H           5.2197    1.0405   -4.3430 H       1  UNL1        0.0594
     13 C           5.5356   -1.0695   -4.7037 C.3     1  UNL1       -0.0002
     14 C           5.4667   -1.6399   -3.2788 C.3     1  UNL1        0.0676
     15 H           5.0156   -2.6381   -3.3411 H       1  UNL1        0.0599
     16 C           4.7113   -0.7930   -2.2543 C.3     1  UNL1        0.0708
     17 C           3.2420   -0.6781   -2.5630 C.2     1  UNL1        0.3072
     18 O           2.6591   -1.2887   -3.4437 O.2     1  UNL1       -0.2509
     19 O           2.6046    0.1832   -1.7383 O.3     1  UNL1       -0.4806
     20 O           6.8028   -1.8216   -2.8122 O.3     1  UNL1       -0.3912
     21 O           5.8912    0.7501   -6.2367 O.3     1  UNL1       -0.3916
     22 C          10.2649   -0.7401   -2.6817 C.ar    1  UNL1       -0.0007
     23 C          10.3498   -2.1109   -2.9619 C.ar    1  UNL1       -0.0499
     24 C          10.0343   -3.0493   -1.9778 C.ar    1  UNL1       -0.0258
     25 C           9.6427   -2.6133   -0.7170 C.ar    1  UNL1        0.1234
     26 C           9.5668   -1.2582   -0.4171 C.ar    1  UNL1       -0.0258
     27 C           9.8812   -0.3196   -1.4006 C.ar    1  UNL1       -0.0499
     28 F           9.3249   -3.5141    0.2221 F       1  UNL1       -0.2055
     29 C          12.8485    1.0056   -2.8311 C.ar    1  UNL1       -0.0151
     30 C          13.1960    2.1425   -2.0925 C.ar    1  UNL1       -0.0539
     31 C          14.2587    2.0983   -1.1876 C.ar    1  UNL1       -0.0612
     32 C          14.9810    0.9185   -1.0157 C.ar    1  UNL1       -0.0617
     33 C          14.6450   -0.2170   -1.7511 C.ar    1  UNL1       -0.0612
     34 C          13.5845   -0.1733   -2.6588 C.ar    1  UNL1       -0.0539
     35 C          12.5626    2.9120   -5.3649 C.2     1  UNL1        0.2506
     36 O          12.6640    3.9957   -4.8047 O.2     1  UNL1       -0.2698
     37 N          13.2834    2.4597   -6.4505 N.am    1  UNL1       -0.2814
     38 C          14.2603    3.1511   -7.1899 C.ar    1  UNL1        0.0337
     39 C          14.8353    2.4777   -8.2757 C.ar    1  UNL1       -0.0405
     40 C          15.8037    3.0989   -9.0688 C.ar    1  UNL1       -0.0600
     41 C          16.2076    4.3997   -8.7819 C.ar    1  UNL1       -0.0616
     42 C          15.6431    5.0762   -7.7032 C.ar    1  UNL1       -0.0600
     43 C          14.6727    4.4549   -6.9102 C.ar    1  UNL1       -0.0405
     44 H           9.5869    1.9934   -8.8647 H       1  UNL1        0.0236
     45 H          10.0369    0.5213   -7.9915 H       1  UNL1        0.0236
     46 H          11.2165    1.8196   -8.2052 H       1  UNL1        0.0236
     47 H           8.6006    2.0618   -6.6391 H       1  UNL1        0.0358
     48 H          10.8280    4.0865   -7.0276 H       1  UNL1        0.0236
     49 H           9.5524    4.2247   -5.8018 H       1  UNL1        0.0236
     50 H           9.1435    4.1835   -7.5229 H       1  UNL1        0.0236
     51 H           8.5042   -1.0369   -4.7077 H       1  UNL1        0.0493
     52 H           8.3523   -0.0258   -6.1148 H       1  UNL1        0.0493
     53 H           7.4908    1.8476   -4.5136 H       1  UNL1        0.0307
     54 H           7.4083    0.6390   -3.2530 H       1  UNL1        0.0307
     55 H           6.2165   -1.6875   -5.3041 H       1  UNL1        0.0315
     56 H           4.5561   -1.1906   -5.1834 H       1  UNL1        0.0315
     57 H           5.1509    0.2072   -2.1817 H       1  UNL1        0.0403
     58 H           4.8101   -1.2550   -1.2643 H       1  UNL1        0.0403
     59 H           3.1772    0.6001   -1.0659 H       1  UNL1        0.2951
     60 H           6.7893   -2.4573   -2.0742 H       1  UNL1        0.2098
     61 H           4.9751    0.6104   -6.5372 H       1  UNL1        0.2098
     62 H          10.6631   -2.4492   -3.9463 H       1  UNL1        0.0625
     63 H          10.0931   -4.1121   -2.1871 H       1  UNL1        0.0646
     64 H           9.2724   -0.9397    0.5770 H       1  UNL1        0.0646
     65 H           9.8354    0.7418   -1.1674 H       1  UNL1        0.0625
     66 H          12.6433    3.0715   -2.2189 H       1  UNL1        0.0624
     67 H          14.5228    2.9876   -0.6215 H       1  UNL1        0.0618
     68 H          15.8083    0.8860   -0.3118 H       1  UNL1        0.0618
     69 H          15.2092   -1.1364   -1.6205 H       1  UNL1        0.0618
     70 H          13.3381   -1.0639   -3.2305 H       1  UNL1        0.0624
     71 H          13.0685    1.5170   -6.7475 H       1  UNL1        0.1551
     72 H          14.5357    1.4624   -8.5215 H       1  UNL1        0.0636
     73 H          16.2409    2.5670   -9.9096 H       1  UNL1        0.0618
     74 H          16.9604    4.8866   -9.3960 H       1  UNL1        0.0618
     75 H          15.9550    6.0918   -7.4732 H       1  UNL1        0.0618
     76 H          14.2592    5.0186   -6.0799 H       1  UNL1        0.0636
@<TRIPOS>BOND
     1     1     2    1
     2     2     3    1
     3     2     4    1
     4     4     5   ar
     5     5     6   ar
     6     6     7   ar
     7     7     8   ar
     8     4     8   ar
     9     8     9    1
    10     9    10    1
    11    11    13    1
    12    14    16    1
    13    16    17    1
    14    17    18    2
    15    17    19    1
    16    14    20    1
    17    11    21    1
    18     7    22    1
    19    22    23   ar
    20    23    24   ar
    21    24    25   ar
    22    25    26   ar
    23    26    27   ar
    24    22    27   ar
    25    25    28    1
    26     6    29    1
    27    29    30   ar
    28    30    31   ar
    29    31    32   ar
    30    32    33   ar
    31    33    34   ar
    32    29    34   ar
    33     5    35    1
    34    35    36    2
    35    35    37   am
    36    37    38    1
    37    38    39   ar
    38    39    40   ar
    39    40    41   ar
    40    41    42   ar
    41    42    43   ar
    42    38    43   ar
    43    14    15    1
    44    14    13    1
    45    11    12    1
    46    11    10    1
    47     1    44    1
    48     1    45    1
    49     1    46    1
    50     2    47    1
    51     3    48    1
    52     3    49    1
    53     3    50    1
    54     9    51    1
    55     9    52    1
    56    10    53    1
    57    10    54    1
    58    13    55    1
    59    13    56    1
    60    16    57    1
    61    16    58    1
    62    19    59    1
    63    20    60    1
    64    21    61    1
    65    23    62    1
    66    24    63    1
    67    26    64    1
    68    27    65    1
    69    30    66    1
    70    31    67    1
    71    32    68    1
    72    33    69    1
    73    34    70    1
    74    37    71    1
    75    39    72    1
    76    40    73    1
    77    41    74    1
    78    42    75    1
    79    43    76    1
