@<TRIPOS>MOLECULE
*****
 55 56 0 0 0
SMALL
GASTEIGER

@<TRIPOS>ATOM
      1 C           0.8202    0.0633    0.2357 C.3     1  UNL1       -0.0653
      2 C           2.2721    0.3336   -0.1262 C.3     1  UNL1       -0.0559
      3 C           2.9229   -0.8893   -0.7706 C.3     1  UNL1       -0.0533
      4 C           4.3800   -0.6155   -1.1482 C.3     1  UNL1       -0.0531
      5 C           5.0271   -1.8538   -1.7688 C.3     1  UNL1       -0.0531
      6 C           6.4834   -1.5964   -2.1608 C.3     1  UNL1       -0.0531
      7 C           7.1083   -2.8501   -2.7730 C.3     1  UNL1       -0.0531
      8 C           8.5728   -2.6317   -3.1569 C.3     1  UNL1       -0.0531
      9 C           9.1451   -3.8851   -3.8194 C.3     1  UNL1       -0.0529
     10 C          10.6324   -3.7393   -4.1438 C.3     1  UNL1       -0.0473
     11 C          11.1275   -4.9508   -4.9330 C.3     1  UNL1        0.0070
     12 C          12.6414   -4.9399   -5.1189 C.3     1  UNL1        0.1526
     13 N          13.0607   -5.9492   -6.0965 N.ar    1  UNL1       -0.1809
     14 C          13.4836   -5.6595   -7.3359 C.ar    1  UNL1        0.2486
     15 N          13.7451   -6.8030   -7.9827 N.ar    1  UNL1       -0.2921
     16 C          14.2211   -6.8839   -9.3557 C.3     1  UNL1        0.0173
     17 C          13.4814   -7.8791   -7.1426 C.ar    1  UNL1        0.1180
     18 C          13.5718   -9.2530   -7.3498 C.ar    1  UNL1       -0.0316
     19 C          13.2222  -10.0634   -6.2610 C.ar    1  UNL1       -0.0594
     20 C          12.8127   -9.5146   -5.0300 C.ar    1  UNL1       -0.0554
     21 C          12.7276   -8.1295   -4.8308 C.ar    1  UNL1        0.0119
     22 C          13.0644   -7.3318   -5.9218 C.ar    1  UNL1        0.2326
     23 H           0.3745    0.9473    0.7022 H       1  UNL1        0.0230
     24 H           0.7399   -0.7702    0.9408 H       1  UNL1        0.0230
     25 H           0.2335   -0.1829   -0.6552 H       1  UNL1        0.0230
     26 H           2.8224    0.6140    0.7795 H       1  UNL1        0.0263
     27 H           2.3192    1.1870   -0.8125 H       1  UNL1        0.0263
     28 H           2.8763   -1.7373   -0.0763 H       1  UNL1        0.0265
     29 H           2.3598   -1.1758   -1.6673 H       1  UNL1        0.0265
     30 H           4.9424   -0.3146   -0.2561 H       1  UNL1        0.0265
     31 H           4.4256    0.2196   -1.8577 H       1  UNL1        0.0265
     32 H           4.4580   -2.1594   -2.6554 H       1  UNL1        0.0265
     33 H           4.9823   -2.6856   -1.0551 H       1  UNL1        0.0265
     34 H           6.5315   -0.7711   -2.8814 H       1  UNL1        0.0265
     35 H           7.0562   -1.2906   -1.2772 H       1  UNL1        0.0265
     36 H           6.5361   -3.1456   -3.6610 H       1  UNL1        0.0265
     37 H           7.0411   -3.6788   -2.0572 H       1  UNL1        0.0265
     38 H           8.6537   -1.7831   -3.8469 H       1  UNL1        0.0265
     39 H           9.1560   -2.3816   -2.2628 H       1  UNL1        0.0265
     40 H           8.5854   -4.0952   -4.7392 H       1  UNL1        0.0265
     41 H           9.0058   -4.7476   -3.1556 H       1  UNL1        0.0265
     42 H          11.2023   -3.6373   -3.2125 H       1  UNL1        0.0267
     43 H          10.8013   -2.8286   -4.7309 H       1  UNL1        0.0267
     44 H          10.6365   -4.9713   -5.9139 H       1  UNL1        0.0326
     45 H          10.8310   -5.8723   -4.4189 H       1  UNL1        0.0326
     46 H          13.1572   -5.1361   -4.1723 H       1  UNL1        0.1031
     47 H          12.9766   -3.9602   -5.4791 H       1  UNL1        0.1031
     48 H          13.5892   -4.6630   -7.7488 H       1  UNL1        0.1601
     49 H          14.4710   -5.8843   -9.7218 H       1  UNL1        0.0457
     50 H          13.4343   -7.3130   -9.9816 H       1  UNL1        0.0457
     51 H          15.1155   -7.5115   -9.3944 H       1  UNL1        0.0457
     52 H          13.8885   -9.6703   -8.2972 H       1  UNL1        0.0640
     53 H          13.2681  -11.1481   -6.3671 H       1  UNL1        0.0618
     54 H          12.5522  -10.1875   -4.2119 H       1  UNL1        0.0620
     55 H          12.4121   -7.7068   -3.8854 H       1  UNL1        0.0684
@<TRIPOS>BOND
     1     1     2    1
     2     2     3    1
     3     3     4    1
     4     4     5    1
     5     5     6    1
     6     6     7    1
     7     7     8    1
     8     8     9    1
     9     9    10    1
    10    10    11    1
    11    11    12    1
    12    12    13    1
    13    13    14   ar
    14    14    15   ar
    15    15    16    1
    16    15    17   ar
    17    17    18   ar
    18    18    19   ar
    19    19    20   ar
    20    20    21   ar
    21    21    22   ar
    22    17    22   ar
    23    13    22   ar
    24     1    23    1
    25     1    24    1
    26     1    25    1
    27     2    26    1
    28     2    27    1
    29     3    28    1
    30     3    29    1
    31     4    30    1
    32     4    31    1
    33     5    32    1
    34     5    33    1
    35     6    34    1
    36     6    35    1
    37     7    36    1
    38     7    37    1
    39     8    38    1
    40     8    39    1
    41     9    40    1
    42     9    41    1
    43    10    42    1
    44    10    43    1
    45    11    44    1
    46    11    45    1
    47    12    46    1
    48    12    47    1
    49    14    48    1
    50    16    49    1
    51    16    50    1
    52    16    51    1
    53    18    52    1
    54    19    53    1
    55    20    54    1
    56    21    55    1
