@<TRIPOS>MOLECULE
*****
 29 30 0 0 0
SMALL
GASTEIGER

@<TRIPOS>ATOM
      1 C           0.8223   -0.1193    0.0278 C.3     1  UNL1       -0.0590
      2 C           2.3660   -0.1078    0.0737 C.3     1  UNL1       -0.0242
      3 C           3.0359   -1.1904   -0.8102 C.3     1  UNL1       -0.0329
      4 C           2.5949   -0.8091   -2.2410 C.3     1  UNL1       -0.0490
      5 C           2.5771    0.7290   -2.1972 C.3     1  UNL1       -0.0445
      6 C           3.0422    1.0421   -0.7428 C.3     1  UNL1       -0.0007
      7 C           4.5617    0.6815   -0.7248 C.3     1  UNL1        0.0614
      8 C           4.5451   -0.8594   -0.7026 C.3     1  UNL1       -0.0230
      9 O           5.2973    1.2038    0.3677 O.3     1  UNL1       -0.3912
     10 C           2.7149    2.4632   -0.3227 C.3     1  UNL1       -0.0567
     11 C           2.7358   -0.2106    1.5658 C.3     1  UNL1       -0.0590
     12 H           0.3932   -0.0248   -0.9716 H       1  UNL1        0.0235
     13 H           0.4135    0.7046    0.6240 H       1  UNL1        0.0235
     14 H           0.4354   -1.0561    0.4457 H       1  UNL1        0.0235
     15 H           2.8034   -2.2254   -0.5486 H       1  UNL1        0.0307
     16 H           1.5997   -1.2031   -2.4723 H       1  UNL1        0.0268
     17 H           3.2825   -1.1856   -3.0056 H       1  UNL1        0.0268
     18 H           1.5730    1.1142   -2.4051 H       1  UNL1        0.0272
     19 H           3.2438    1.1597   -2.9526 H       1  UNL1        0.0272
     20 H           5.0664    1.0406   -1.6288 H       1  UNL1        0.0599
     21 H           4.9884   -1.2657    0.2120 H       1  UNL1        0.0293
     22 H           5.1068   -1.2747   -1.5467 H       1  UNL1        0.0293
     23 H           4.6980    1.3813    1.1085 H       1  UNL1        0.2098
     24 H           1.6464    2.6742   -0.4366 H       1  UNL1        0.0236
     25 H           3.2613    3.1847   -0.9397 H       1  UNL1        0.0236
     26 H           2.9755    2.6522    0.7227 H       1  UNL1        0.0236
     27 H           2.2333   -1.0714    2.0236 H       1  UNL1        0.0235
     28 H           2.4141    0.6852    2.1082 H       1  UNL1        0.0235
     29 H           3.7984   -0.3498    1.7671 H       1  UNL1        0.0235
@<TRIPOS>BOND
     1     1     2    1
     2     2     3    1
     3     3     4    1
     4     4     5    1
     5     5     6    1
     6     2     6    1
     7     6     7    1
     8     7     8    1
     9     3     8    1
    10     7     9    1
    11     6    10    1
    12     2    11    1
    13     1    12    1
    14     1    13    1
    15     1    14    1
    16     3    15    1
    17     4    16    1
    18     4    17    1
    19     5    18    1
    20     5    19    1
    21     7    20    1
    22     8    21    1
    23     8    22    1
    24     9    23    1
    25    10    24    1
    26    10    25    1
    27    10    26    1
    28    11    27    1
    29    11    28    1
    30    11    29    1
