@<TRIPOS>MOLECULE
*****
 54 56 0 0 0
SMALL
GASTEIGER

@<TRIPOS>ATOM
      1 C           0.9067    0.0566   -0.0029 C.2     1  UNL1       -0.0904
      2 C           2.2529    0.0291    0.0172 C.2     1  UNL1       -0.0176
      3 C           3.0000    0.9035    0.9603 C.ar    1  UNL1       -0.0178
      4 C           2.6069    2.2279    1.2121 C.ar    1  UNL1       -0.0533
      5 C           3.3420    3.0412    2.0803 C.ar    1  UNL1       -0.0472
      6 C           4.4823    2.5372    2.7098 C.ar    1  UNL1        0.0589
      7 C           5.2384    3.4265    3.6207 C.2     1  UNL1        0.3368
      8 O           5.4033    4.6144    3.4091 O.2     1  UNL1       -0.2451
      9 O           5.6737    2.7958    4.7321 O.3     1  UNL1       -0.4771
     10 C           4.9092    1.2328    2.4435 C.ar    1  UNL1       -0.0472
     11 C           4.1687    0.4245    1.5749 C.ar    1  UNL1       -0.0533
     12 C           2.9116   -0.8910   -0.9459 C.ar    1  UNL1       -0.0147
     13 C           3.5859   -0.3178   -2.0356 C.ar    1  UNL1       -0.0498
     14 C           4.2494   -1.0919   -3.0135 C.ar    1  UNL1       -0.0374
     15 C           4.2654   -2.4956   -2.8598 C.ar    1  UNL1       -0.0377
     16 C           3.5675   -3.0621   -1.7685 C.ar    1  UNL1       -0.0543
     17 C           2.9062   -2.2846   -0.8041 C.ar    1  UNL1       -0.0425
     18 C           2.1979   -2.9758    0.3288 C.3     1  UNL1       -0.0391
     19 C           4.9771   -3.4231   -3.8551 C.3     1  UNL1       -0.0095
     20 C           3.9112   -4.1337   -4.7184 C.3     1  UNL1       -0.0558
     21 C           5.8200   -4.5036   -3.1360 C.3     1  UNL1       -0.0558
     22 C           5.9539   -2.6422   -4.7620 C.3     1  UNL1       -0.0431
     23 C           5.3315   -1.3665   -5.3033 C.3     1  UNL1       -0.0431
     24 C           4.9580   -0.3807   -4.1742 C.3     1  UNL1       -0.0095
     25 C           6.2322    0.3031   -3.6305 C.3     1  UNL1       -0.0558
     26 C           4.0623    0.7034   -4.8202 C.3     1  UNL1       -0.0558
     27 H           0.3252    0.6788    0.6693 H       1  UNL1        0.0541
     28 H           0.3370   -0.5582   -0.6950 H       1  UNL1        0.0541
     29 H           1.7341    2.6499    0.7181 H       1  UNL1        0.0624
     30 H           3.0271    4.0681    2.2567 H       1  UNL1        0.0626
     31 H           5.3195    1.8948    4.8514 H       1  UNL1        0.2954
     32 H           5.8284    0.8432    2.8738 H       1  UNL1        0.0626
     33 H           4.5198   -0.5861    1.3721 H       1  UNL1        0.0624
     34 H           3.5923    0.7682   -2.1136 H       1  UNL1        0.0627
     35 H           3.5324   -4.1447   -1.6610 H       1  UNL1        0.0623
     36 H           2.5264   -4.0163    0.4269 H       1  UNL1        0.0278
     37 H           1.1176   -2.9784    0.1545 H       1  UNL1        0.0278
     38 H           2.4139   -2.4873    1.2842 H       1  UNL1        0.0278
     39 H           3.2748   -4.7898   -4.1130 H       1  UNL1        0.0238
     40 H           4.3784   -4.7565   -5.4898 H       1  UNL1        0.0238
     41 H           3.2469   -3.4210   -5.2192 H       1  UNL1        0.0238
     42 H           5.2028   -5.2185   -2.5819 H       1  UNL1        0.0238
     43 H           6.5207   -4.0507   -2.4246 H       1  UNL1        0.0238
     44 H           6.4055   -5.0871   -3.8566 H       1  UNL1        0.0238
     45 H           6.2752   -3.2716   -5.6021 H       1  UNL1        0.0274
     46 H           6.8690   -2.3921   -4.2103 H       1  UNL1        0.0274
     47 H           4.4440   -1.6207   -5.8965 H       1  UNL1        0.0274
     48 H           6.0315   -0.8922   -6.0034 H       1  UNL1        0.0274
     49 H           6.8904   -0.4056   -3.1161 H       1  UNL1        0.0238
     50 H           5.9892    1.0923   -2.9090 H       1  UNL1        0.0238
     51 H           6.8066    0.7689   -4.4393 H       1  UNL1        0.0238
     52 H           3.0947    0.2874   -5.1250 H       1  UNL1        0.0238
     53 H           4.5406    1.1258   -5.7120 H       1  UNL1        0.0238
     54 H           3.8631    1.5417   -4.1444 H       1  UNL1        0.0238
@<TRIPOS>BOND
     1     1     2    2
     2     2     3    1
     3     3     4   ar
     4     4     5   ar
     5     5     6   ar
     6     6     7    1
     7     7     8    2
     8     7     9    1
     9     6    10   ar
    10    10    11   ar
    11     3    11   ar
    12     2    12    1
    13    12    13   ar
    14    13    14   ar
    15    14    15   ar
    16    15    16   ar
    17    16    17   ar
    18    12    17   ar
    19    17    18    1
    20    15    19    1
    21    19    20    1
    22    19    21    1
    23    19    22    1
    24    22    23    1
    25    23    24    1
    26    14    24    1
    27    24    25    1
    28    24    26    1
    29     1    27    1
    30     1    28    1
    31     4    29    1
    32     5    30    1
    33     9    31    1
    34    10    32    1
    35    11    33    1
    36    13    34    1
    37    16    35    1
    38    18    36    1
    39    18    37    1
    40    18    38    1
    41    20    39    1
    42    20    40    1
    43    20    41    1
    44    21    42    1
    45    21    43    1
    46    21    44    1
    47    22    45    1
    48    22    46    1
    49    23    47    1
    50    23    48    1
    51    25    49    1
    52    25    50    1
    53    25    51    1
    54    26    52    1
    55    26    53    1
    56    26    54    1
