@<TRIPOS>MOLECULE
*****
 82 84 0 0 0
SMALL
GASTEIGER

@<TRIPOS>ATOM
      1 C           1.3145    0.5064    0.2477 C.3     1  UNL1       -0.0653
      2 C           1.9263   -0.8057   -0.2161 C.3     1  UNL1       -0.0559
      3 C           3.4370   -0.6846   -0.4205 C.3     1  UNL1       -0.0533
      4 C           4.0202   -1.9741   -1.0017 C.3     1  UNL1       -0.0531
      5 C           5.5486   -1.9291   -1.0630 C.3     1  UNL1       -0.0531
      6 C           6.1092   -3.1743   -1.7552 C.3     1  UNL1       -0.0531
      7 C           7.6381   -3.2070   -1.7101 C.3     1  UNL1       -0.0531
      8 C           8.1916   -4.4468   -2.4198 C.3     1  UNL1       -0.0531
      9 C           9.7208   -4.4370   -2.4438 C.3     1  UNL1       -0.0531
     10 C          10.2973   -5.7131   -3.0687 C.3     1  UNL1       -0.0531
     11 C          11.7853   -5.5373   -3.3766 C.3     1  UNL1       -0.0531
     12 C          12.4722   -6.8420   -3.7976 C.3     1  UNL1       -0.0531
     13 C          13.8557   -6.5407   -4.3815 C.3     1  UNL1       -0.0530
     14 C          14.7769   -7.7641   -4.4482 C.3     1  UNL1       -0.0522
     15 C          16.1162   -7.3763   -5.0940 C.3     1  UNL1       -0.0422
     16 C          17.2846   -8.2718   -4.6903 C.3     1  UNL1        0.0096
     17 C          17.3444   -9.5466   -5.4133 C.1     1  UNL1       -0.0940
     18 C          17.5179  -10.5949   -5.9763 C.1     1  UNL1       -0.0280
     19 C          17.8280  -11.8273   -6.6208 C.ar    1  UNL1        0.1904
     20 N          18.1183  -11.8678   -7.9073 N.ar    1  UNL1       -0.2149
     21 C          18.5388  -13.1550   -8.1416 C.ar    1  UNL1        0.1486
     22 C          19.0380  -13.7865   -9.2943 C.ar    1  UNL1        0.1472
     23 N          19.2008  -13.1336  -10.5102 N.pl3   1  UNL1       -0.3413
     24 N          19.3827  -15.0905   -9.2226 N.ar    1  UNL1       -0.2188
     25 C          19.2697  -15.7119   -8.0308 C.ar    1  UNL1        0.1205
     26 N          18.8398  -15.2034   -6.8618 N.ar    1  UNL1       -0.2159
     27 C          18.4664  -13.9172   -6.9880 C.ar    1  UNL1        0.1683
     28 N          17.9778  -13.0652   -6.0205 N.ar    1  UNL1       -0.2723
     29 C1*        17.8977  -13.3550   -4.5995 C.3     1  UNL1        0.1677
     30 O4*        17.6856  -14.7766   -4.3734 O.3     1  UNL1       -0.3456
     31 C4*        16.7837  -14.9353   -3.2608 C.3     1  UNL1        0.1126
     32 H4*        15.7978  -15.2158   -3.6510 H       1  UNL1        0.0647
     33 C5*        17.2966  -16.0575   -2.3657 C.3     1  UNL1        0.0730
     34 O5*        18.6363  -15.7838   -1.9564 O.3     1  UNL1       -0.3924
     35 C3*        16.7320  -13.5786   -2.5667 C.3     1  UNL1        0.1135
     36 H3*        17.5905  -13.4143   -1.9047 H       1  UNL1        0.0647
     37 O3*        15.5269  -13.3522   -1.8432 O.3     1  UNL1       -0.3864
     38 C2*        16.8238  -12.6452   -3.7629 C.3     1  UNL1        0.1286
     39 H2*        17.0912  -11.6286   -3.4652 H       1  UNL1        0.0665
     40 O2*        15.5457  -12.5994   -4.4123 O.3     1  UNL1       -0.3847
     41 H           0.2428    0.3800    0.4318 H       1  UNL1        0.0230
     42 H           1.4376    1.2844   -0.5124 H       1  UNL1        0.0230
     43 H           1.7805    0.8538    1.1751 H       1  UNL1        0.0230
     44 H           1.4431   -1.1161   -1.1498 H       1  UNL1        0.0263
     45 H           1.7183   -1.5822    0.5296 H       1  UNL1        0.0263
     46 H           3.6552    0.1500   -1.0979 H       1  UNL1        0.0265
     47 H           3.9166   -0.4560    0.5389 H       1  UNL1        0.0265
     48 H           3.6130   -2.1327   -2.0078 H       1  UNL1        0.0265
     49 H           3.7093   -2.8297   -0.3898 H       1  UNL1        0.0265
     50 H           5.8749   -1.0319   -1.6028 H       1  UNL1        0.0265
     51 H           5.9497   -1.8579   -0.0447 H       1  UNL1        0.0265
     52 H           5.7727   -3.1885   -2.7993 H       1  UNL1        0.0265
     53 H           5.7107   -4.0761   -1.2753 H       1  UNL1        0.0265
     54 H           8.0391   -2.3005   -2.1795 H       1  UNL1        0.0265
     55 H           7.9737   -3.2054   -0.6657 H       1  UNL1        0.0265
     56 H           7.8156   -4.4771   -3.4499 H       1  UNL1        0.0265
     57 H           7.8313   -5.3515   -1.9161 H       1  UNL1        0.0265
     58 H          10.1074   -4.3336   -1.4221 H       1  UNL1        0.0265
     59 H          10.0628   -3.5589   -3.0052 H       1  UNL1        0.0265
     60 H           9.7657   -5.9513   -3.9977 H       1  UNL1        0.0265
     61 H          10.1464   -6.5547   -2.3824 H       1  UNL1        0.0265
     62 H          11.8926   -4.7893   -4.1723 H       1  UNL1        0.0265
     63 H          12.3003   -5.1378   -2.4937 H       1  UNL1        0.0265
     64 H          11.8693   -7.3709   -4.5449 H       1  UNL1        0.0265
     65 H          12.5593   -7.4989   -2.9240 H       1  UNL1        0.0265
     66 H          14.3452   -5.7726   -3.7690 H       1  UNL1        0.0265
     67 H          13.7333   -6.1145   -5.3852 H       1  UNL1        0.0265
     68 H          14.9398   -8.1378   -3.4303 H       1  UNL1        0.0266
     69 H          14.3055   -8.5713   -5.0205 H       1  UNL1        0.0266
     70 H          16.3742   -6.3562   -4.7808 H       1  UNL1        0.0274
     71 H          16.0024   -7.3471   -6.1850 H       1  UNL1        0.0274
     72 H          17.2690   -8.4536   -3.6096 H       1  UNL1        0.0397
     73 H          18.2155   -7.7282   -4.8955 H       1  UNL1        0.0397
     74 H          18.6311  -12.2994  -10.5956 H       1  UNL1        0.1438
     75 H          19.2131  -13.7800  -11.2876 H       1  UNL1        0.1438
     76 H          19.5673  -16.7564   -8.0130 H       1  UNL1        0.1048
     77 H1*        18.8920  -13.1308   -4.1912 H       1  UNL1        0.0867
     78 H5*1       16.6767  -16.1655   -1.4709 H       1  UNL1        0.0584
     79 H5*2       17.3056  -17.0110   -2.9037 H       1  UNL1        0.0584
     80 H5*        19.1676  -15.8145   -2.7771 H       1  UNL1        0.2095
     81 H3*        15.5806  -13.8726   -1.0202 H       1  UNL1        0.2100
     82 H2*        14.8897  -12.5289   -3.6882 H       1  UNL1        0.2101
@<TRIPOS>BOND
     1     1     2    1
     2     2     3    1
     3     3     4    1
     4     4     5    1
     5     5     6    1
     6     6     7    1
     7     7     8    1
     8     8     9    1
     9     9    10    1
    10    10    11    1
    11    11    12    1
    12    12    13    1
    13    13    14    1
    14    14    15    1
    15    15    16    1
    16    16    17    1
    17    17    18    3
    18    18    19    1
    19    19    20   ar
    20    20    21   ar
    21    21    22   ar
    22    22    23    1
    23    22    24   ar
    24    24    25   ar
    25    25    26   ar
    26    26    27   ar
    27    21    27   ar
    28    27    28   ar
    29    19    28   ar
    30    28    29    1
    31    29    30    1
    32    30    31    1
    33    33    34    1
    34    31    35    1
    35    35    36    1
    36    35    37    1
    37    35    38    1
    38    38    39    1
    39    29    38    1
    40    38    40    1
    41    31    33    1
    42    31    32    1
    43     1    41    1
    44     1    42    1
    45     1    43    1
    46     2    44    1
    47     2    45    1
    48     3    46    1
    49     3    47    1
    50     4    48    1
    51     4    49    1
    52     5    50    1
    53     5    51    1
    54     6    52    1
    55     6    53    1
    56     7    54    1
    57     7    55    1
    58     8    56    1
    59     8    57    1
    60     9    58    1
    61     9    59    1
    62    10    60    1
    63    10    61    1
    64    11    62    1
    65    11    63    1
    66    12    64    1
    67    12    65    1
    68    13    66    1
    69    13    67    1
    70    14    68    1
    71    14    69    1
    72    15    70    1
    73    15    71    1
    74    16    72    1
    75    16    73    1
    76    23    74    1
    77    23    75    1
    78    25    76    1
    79    29    77    1
    80    33    78    1
    81    33    79    1
    82    34    80    1
    83    37    81    1
    84    40    82    1
