@<TRIPOS>MOLECULE
*****
 74 77 0 0 0
SMALL
GASTEIGER

@<TRIPOS>ATOM
      1 C           0.5395   -0.5427    1.5345 C.3     1  UNL1       -0.0394
      2 C           1.9874   -0.3627    1.1640 C.ar    1  UNL1       -0.0450
      3 C           2.4843    0.9511    1.0485 C.ar    1  UNL1       -0.0337
      4 C           3.8114    1.2117    0.6978 C.ar    1  UNL1        0.0760
      5 C           4.6711    0.1162    0.4850 C.ar    1  UNL1        0.1423
      6 C           4.1957   -1.1913    0.6103 C.ar    1  UNL1       -0.0144
      7 C           2.8503   -1.4550    0.9376 C.ar    1  UNL1       -0.0377
      8 C           2.3756   -2.9006    1.0410 C.3     1  UNL1       -0.0132
      9 C           2.5108   -3.6523   -0.2941 C.3     1  UNL1       -0.0336
     10 C           2.0579   -5.1036   -0.1473 C.3     1  UNL1       -0.0036
     11 N           2.7948   -5.7882    0.9149 N.3     1  UNL1       -0.3159
     12 C           2.6189   -5.1244    2.2068 C.3     1  UNL1       -0.0036
     13 C           3.0945   -3.6736    2.1589 C.3     1  UNL1       -0.0336
     14 O           5.9707    0.4480    0.1851 O.3     1  UNL1       -0.4875
     15 C           6.7549   -0.4545   -0.6016 C.3     1  UNL1        0.0947
     16 C           6.2720   -0.4812   -2.0501 C.3     1  UNL1       -0.0281
     17 C           8.1905    0.0655   -0.5454 C.3     1  UNL1       -0.0281
     18 N           4.3447    2.5067    0.5793 N.pl3   1  UNL1       -0.2806
     19 C           3.7844    3.7626    0.4038 C.ar    1  UNL1        0.2213
     20 N           2.4654    3.9850    0.5005 N.ar    1  UNL1       -0.2211
     21 C           2.0267    5.2238    0.2034 C.ar    1  UNL1        0.0528
     22 C           2.8529    6.2469   -0.1925 C.ar    1  UNL1        0.0991
     23 C           4.2065    5.9507   -0.2349 C.ar    1  UNL1        0.1465
     24 N           4.6584    4.7253    0.0717 N.ar    1  UNL1       -0.1977
     25 N           5.1345    6.9139   -0.7318 N.pl3   1  UNL1       -0.2967
     26 C           6.5393    6.8046   -0.5641 C.ar    1  UNL1        0.0575
     27 C           7.1236    7.6784    0.3825 C.ar    1  UNL1       -0.0386
     28 C           8.4812    7.6218    0.7043 C.ar    1  UNL1       -0.0599
     29 C           9.2937    6.6787    0.0947 C.ar    1  UNL1       -0.0598
     30 C           8.7454    5.8029   -0.8389 C.ar    1  UNL1       -0.0350
     31 C           7.3755    5.8555   -1.1761 C.ar    1  UNL1        0.1095
     32 S           6.8950    4.7244   -2.4741 S.O2    1  UNL1        0.0010
     33 O           8.0425    4.6438   -3.3691 O.2     1  UNL1       -0.1690
     34 O           6.4284    3.5095   -1.8302 O.2     1  UNL1       -0.1690
     35 C           5.5683    5.4252   -3.4521 C.3     1  UNL1        0.0764
     36 C           5.9626    6.7546   -4.0889 C.3     1  UNL1       -0.0427
     37 C           5.1530    4.4319   -4.5408 C.3     1  UNL1       -0.0427
     38 CL          2.2190    7.7931   -0.5887 Cl      1  UNL1       -0.0784
     39 H           0.0350    0.4188    1.6785 H       1  UNL1        0.0278
     40 H           0.4536   -1.0981    2.4739 H       1  UNL1        0.0278
     41 H           0.0068   -1.0730    0.7387 H       1  UNL1        0.0278
     42 H           1.8120    1.7817    1.2440 H       1  UNL1        0.0640
     43 H           4.8674   -2.0304    0.4671 H       1  UNL1        0.0658
     44 H           1.3090   -2.9125    1.2936 H       1  UNL1        0.0350
     45 H           3.5489   -3.6378   -0.6498 H       1  UNL1        0.0283
     46 H           1.9090   -3.1574   -1.0665 H       1  UNL1        0.0283
     47 H           2.2301   -5.6296   -1.0928 H       1  UNL1        0.0424
     48 H           0.9801   -5.1482    0.0513 H       1  UNL1        0.0424
     49 H           2.4680   -6.7519    0.9843 H       1  UNL1        0.1219
     50 H           3.1969   -5.6657    2.9638 H       1  UNL1        0.0424
     51 H           1.5671   -5.1704    2.5147 H       1  UNL1        0.0424
     52 H           4.1815   -3.6606    2.0092 H       1  UNL1        0.0283
     53 H           2.9067   -3.1944    3.1277 H       1  UNL1        0.0283
     54 H           6.7593   -1.4605   -0.1699 H       1  UNL1        0.0727
     55 H           6.2359    0.5302   -2.4697 H       1  UNL1        0.0265
     56 H           5.2586   -0.8880   -2.1231 H       1  UNL1        0.0265
     57 H           6.9283   -1.0965   -2.6736 H       1  UNL1        0.0265
     58 H           8.2553    1.0868   -0.9374 H       1  UNL1        0.0265
     59 H           8.8692   -0.5744   -1.1174 H       1  UNL1        0.0265
     60 H           8.5404    0.1048    0.4921 H       1  UNL1        0.0265
     61 H           5.2985    2.5142    0.2193 H       1  UNL1        0.1551
     62 H           0.9524    5.3591    0.2839 H       1  UNL1        0.0847
     63 H           4.8083    7.8305   -0.4246 H       1  UNL1        0.1537
     64 H           6.5111    8.4114    0.9044 H       1  UNL1        0.0637
     65 H           8.8964    8.3047    1.4411 H       1  UNL1        0.0618
     66 H          10.3505    6.6196    0.3426 H       1  UNL1        0.0618
     67 H           9.3991    5.0696   -1.3111 H       1  UNL1        0.0637
     68 H           4.7028    5.5596   -2.8060 H       1  UNL1        0.0534
     69 H           6.8069    6.6341   -4.7764 H       1  UNL1        0.0248
     70 H           6.2542    7.4966   -3.3414 H       1  UNL1        0.0248
     71 H           5.1251    7.1719   -4.6581 H       1  UNL1        0.0248
     72 H           5.9793    4.2203   -5.2280 H       1  UNL1        0.0248
     73 H           4.3158    4.8253   -5.1269 H       1  UNL1        0.0248
     74 H           4.8352    3.4802   -4.1019 H       1  UNL1        0.0248
@<TRIPOS>BOND
     1     1     2    1
     2     2     3   ar
     3     3     4   ar
     4     4     5   ar
     5     5     6   ar
     6     6     7   ar
     7     2     7   ar
     8     7     8    1
     9     8     9    1
    10     9    10    1
    11    10    11    1
    12    11    12    1
    13    12    13    1
    14     8    13    1
    15     5    14    1
    16    14    15    1
    17    15    16    1
    18    15    17    1
    19     4    18    1
    20    18    19    1
    21    19    20   ar
    22    20    21   ar
    23    21    22   ar
    24    22    23   ar
    25    23    24   ar
    26    19    24   ar
    27    23    25    1
    28    25    26    1
    29    26    27   ar
    30    27    28   ar
    31    28    29   ar
    32    29    30   ar
    33    30    31   ar
    34    26    31   ar
    35    31    32    1
    36    32    33    2
    37    32    34    2
    38    32    35    1
    39    35    36    1
    40    35    37    1
    41    22    38    1
    42     1    39    1
    43     1    40    1
    44     1    41    1
    45     3    42    1
    46     6    43    1
    47     8    44    1
    48     9    45    1
    49     9    46    1
    50    10    47    1
    51    10    48    1
    52    11    49    1
    53    12    50    1
    54    12    51    1
    55    13    52    1
    56    13    53    1
    57    15    54    1
    58    16    55    1
    59    16    56    1
    60    16    57    1
    61    17    58    1
    62    17    59    1
    63    17    60    1
    64    18    61    1
    65    21    62    1
    66    25    63    1
    67    27    64    1
    68    28    65    1
    69    29    66    1
    70    30    67    1
    71    35    68    1
    72    36    69    1
    73    36    70    1
    74    36    71    1
    75    37    72    1
    76    37    73    1
    77    37    74    1
