@<TRIPOS>MOLECULE
*****
 74 77 0 0 0
SMALL
GASTEIGER

@<TRIPOS>ATOM
      1 C           1.8127   -0.3445    1.5617 C.3     1  UNL1       -0.0627
      2 C           3.2180    0.2530    1.5053 C.3     1  UNL1       -0.0467
      3 C           4.0853   -0.5370    0.5235 C.3     1  UNL1       -0.0627
      4 C           3.8333    0.3197    2.9197 C.3     1  UNL1       -0.0507
      5 C           5.1502    1.0940    2.9209 C.3     1  UNL1       -0.0526
      6 C           5.6370    1.5076    4.3211 C.3     1  UNL1       -0.0502
      7 C           6.6460    2.6858    4.1740 C.3     1  UNL1       -0.0405
      8 H           7.0378    2.6357    3.1589 H       1  UNL1        0.0301
      9 C           5.8033    3.9725    4.3145 C.3     1  UNL1       -0.0621
     10 C           7.8712    2.6768    5.1369 C.3     1  UNL1       -0.0328
     11 C           8.5332    1.2800    5.3209 C.3     1  UNL1       -0.0492
     12 C          10.0073    1.3805    4.9134 C.3     1  UNL1       -0.0492
     13 C          10.1421    2.6837    4.1232 C.3     1  UNL1       -0.0320
     14 C          10.0585    2.5385    2.5607 C.3     1  UNL1       -0.0307
     15 C           9.2568    1.3187    2.0461 C.3     1  UNL1       -0.0311
     16 C           8.4350    1.5031    0.8161 C.2     1  UNL1       -0.0839
     17 C           8.4976    2.5772    0.0242 C.2     1  UNL1       -0.0648
     18 C           7.5305    2.7645   -1.1164 C.3     1  UNL1       -0.0051
     19 C           6.6994    4.0347   -0.8988 C.3     1  UNL1        0.0590
     20 H           6.1479    4.2565   -1.8193 H       1  UNL1        0.0596
     21 O           5.7061    3.8353    0.1145 O.3     1  UNL1       -0.3915
     22 C           7.5408    5.2536   -0.4999 C.3     1  UNL1       -0.0258
     23 C           9.0545    4.9896   -0.4684 C.3     1  UNL1       -0.0413
     24 C           9.5104    3.6851    0.2621 C.3     1  UNL1       -0.0078
     25 C          10.8419    3.2524   -0.4105 C.3     1  UNL1       -0.0556
     26 C           9.7760    3.8820    1.8098 C.3     1  UNL1       -0.0285
     27 C           8.6964    4.7185    2.5044 C.3     1  UNL1       -0.0486
     28 C           8.9359    4.8943    3.9954 C.3     1  UNL1       -0.0468
     29 C           9.1052    3.6105    4.8128 C.3     1  UNL1       -0.0259
     30 C           9.6660    4.0805    6.1954 C.3     1  UNL1       -0.0590
     31 H           1.3497   -0.3361    0.5689 H       1  UNL1        0.0232
     32 H           1.1700    0.2373    2.2308 H       1  UNL1        0.0232
     33 H           1.8328   -1.3787    1.9198 H       1  UNL1        0.0232
     34 H           3.1226    1.2772    1.1205 H       1  UNL1        0.0295
     35 H           4.2329   -1.5672    0.8640 H       1  UNL1        0.0232
     36 H           5.0690   -0.0751    0.3950 H       1  UNL1        0.0232
     37 H           3.6150   -0.5713   -0.4653 H       1  UNL1        0.0232
     38 H           3.9927   -0.6893    3.3187 H       1  UNL1        0.0268
     39 H           3.1224    0.8208    3.5882 H       1  UNL1        0.0268
     40 H           5.0254    1.9869    2.2974 H       1  UNL1        0.0265
     41 H           5.9339    0.4874    2.4524 H       1  UNL1        0.0265
     42 H           6.0531    0.6315    4.8218 H       1  UNL1        0.0268
     43 H           4.7845    1.8175    4.9390 H       1  UNL1        0.0268
     44 H           4.8994    3.9193    3.6966 H       1  UNL1        0.0233
     45 H           6.3218    4.8723    3.9953 H       1  UNL1        0.0233
     46 H           5.4862    4.1210    5.3525 H       1  UNL1        0.0233
     47 H           7.4635    2.9612    6.1178 H       1  UNL1        0.0309
     48 H           8.0579    0.4914    4.7357 H       1  UNL1        0.0268
     49 H           8.4593    0.9623    6.3679 H       1  UNL1        0.0268
     50 H          10.3490    0.4979    4.3641 H       1  UNL1        0.0268
     51 H          10.6260    1.4266    5.8183 H       1  UNL1        0.0268
     52 H          11.1465    3.0904    4.3137 H       1  UNL1        0.0309
     53 H          11.0948    2.2860    2.2817 H       1  UNL1        0.0309
     54 H           8.5614    0.9569    2.7968 H       1  UNL1        0.0310
     55 H           9.9537    0.4888    1.8673 H       1  UNL1        0.0310
     56 H           7.7119    0.7152    0.6126 H       1  UNL1        0.0572
     57 H           6.8633    1.8979   -1.2062 H       1  UNL1        0.0335
     58 H           8.0904    2.8341   -2.0560 H       1  UNL1        0.0335
     59 H           5.3425    2.9402    0.0112 H       1  UNL1        0.2098
     60 H           7.1976    5.6614    0.4558 H       1  UNL1        0.0290
     61 H           7.3573    6.0541   -1.2284 H       1  UNL1        0.0290
     62 H           9.5744    5.8614   -0.0527 H       1  UNL1        0.0274
     63 H           9.3771    4.9448   -1.5190 H       1  UNL1        0.0274
     64 H          10.7071    3.0696   -1.4839 H       1  UNL1        0.0238
     65 H          11.2485    2.3296    0.0157 H       1  UNL1        0.0238
     66 H          11.6036    4.0331   -0.3027 H       1  UNL1        0.0238
     67 H          10.6986    4.4772    1.8977 H       1  UNL1        0.0312
     68 H           7.7076    4.3154    2.2969 H       1  UNL1        0.0268
     69 H           8.7003    5.7298    2.0819 H       1  UNL1        0.0268
     70 H           8.1710    5.5400    4.4374 H       1  UNL1        0.0271
     71 H           9.8624    5.4823    4.0837 H       1  UNL1        0.0271
     72 H           8.9745    4.7885    6.6681 H       1  UNL1        0.0235
     73 H          10.6328    4.5845    6.0842 H       1  UNL1        0.0235
     74 H           9.8079    3.2544    6.8995 H       1  UNL1        0.0235
@<TRIPOS>BOND
     1     1     2    1
     2     2     3    1
     3     2     4    1
     4     4     5    1
     5     5     6    1
     6     6     7    1
     7     7     8    1
     8     7     9    1
     9     7    10    1
    10    10    11    1
    11    11    12    1
    12    12    13    1
    13    13    14    1
    14    14    15    1
    15    15    16    1
    16    16    17    2
    17    17    18    1
    18    18    19    1
    19    19    20    1
    20    19    21    1
    21    19    22    1
    22    22    23    1
    23    23    24    1
    24    17    24    1
    25    24    25    1
    26    24    26    1
    27    14    26    1
    28    26    27    1
    29    27    28    1
    30    28    29    1
    31    10    29    1
    32    13    29    1
    33    29    30    1
    34     1    31    1
    35     1    32    1
    36     1    33    1
    37     2    34    1
    38     3    35    1
    39     3    36    1
    40     3    37    1
    41     4    38    1
    42     4    39    1
    43     5    40    1
    44     5    41    1
    45     6    42    1
    46     6    43    1
    47     9    44    1
    48     9    45    1
    49     9    46    1
    50    10    47    1
    51    11    48    1
    52    11    49    1
    53    12    50    1
    54    12    51    1
    55    13    52    1
    56    14    53    1
    57    15    54    1
    58    15    55    1
    59    16    56    1
    60    18    57    1
    61    18    58    1
    62    21    59    1
    63    22    60    1
    64    22    61    1
    65    23    62    1
    66    23    63    1
    67    25    64    1
    68    25    65    1
    69    25    66    1
    70    26    67    1
    71    27    68    1
    72    27    69    1
    73    28    70    1
    74    28    71    1
    75    30    72    1
    76    30    73    1
    77    30    74    1
