@<TRIPOS>MOLECULE
*****
 67 68 0 0 0
SMALL
GASTEIGER

@<TRIPOS>ATOM
      1 C          -5.2431    6.4419    6.5351 C.3     1  UNL1       -0.0572
      2 C          -4.4356    5.3288    5.8652 C.3     1  UNL1       -0.0037
      3 C          -4.1657    4.1886    6.8530 C.3     1  UNL1       -0.0572
      4 C          -5.1631    4.8333    4.6243 C.ar    1  UNL1        0.0519
      5 C          -4.7980    5.2040    3.3286 C.ar    1  UNL1        0.0044
      6 C          -5.5950    4.7476    2.2486 C.ar    1  UNL1       -0.0019
      7 C          -6.7261    3.9143    2.5029 C.ar    1  UNL1        0.0079
      8 C          -6.9935    3.5645    3.8369 C.ar    1  UNL1        0.0501
      9 N          -6.2244    4.0297    4.8604 N.ar    1  UNL1       -0.2550
     10 C          -8.1260    2.6912    4.3566 C.3     1  UNL1       -0.0039
     11 C          -8.4562    1.4149    3.5856 C.3     1  UNL1       -0.0572
     12 C          -9.3821    3.5133    4.6540 C.3     1  UNL1       -0.0572
     13 C          -7.5865    3.4449    1.3512 C.3     1  UNL1        0.0746
     14 O          -8.8936    3.9974    1.4742 O.3     1  UNL1       -0.3783
     15 C          -9.7230    3.6414    0.3771 C.3     1  UNL1        0.0369
     16 C          -5.2469    5.1495    0.8682 C.ar    1  UNL1       -0.0167
     17 C          -5.7469    6.3448    0.3227 C.ar    1  UNL1       -0.0513
     18 C          -5.4248    6.7181   -0.9837 C.ar    1  UNL1       -0.0259
     19 C          -4.6040    5.8976   -1.7482 C.ar    1  UNL1        0.1234
     20 C          -4.1002    4.7098   -1.2338 C.ar    1  UNL1       -0.0259
     21 C          -4.4221    4.3357    0.0717 C.ar    1  UNL1       -0.0513
     22 F          -4.2956    6.2564   -3.0013 F       1  UNL1       -0.2055
     23 C          -3.6106    6.0431    3.0943 C.2     1  UNL1       -0.0538
     24 C          -2.3415    5.6273    2.9302 C.2     1  UNL1       -0.0552
     25 C          -1.7257    4.2492    2.8924 C.3     1  UNL1        0.0760
     26 H          -1.0661    4.1391    3.7614 H       1  UNL1        0.0638
     27 C          -0.8914    4.0638    1.6121 C.3     1  UNL1        0.0034
     28 C          -0.3787    2.6227    1.4548 C.3     1  UNL1        0.0679
     29 H           0.0378    2.2596    2.4018 H       1  UNL1        0.0599
     30 C           0.6512    2.4849    0.3360 C.3     1  UNL1        0.0708
     31 C           2.0156    2.9546    0.7673 C.2     1  UNL1        0.3072
     32 O           2.2611    3.5541    1.8023 O.2     1  UNL1       -0.2509
     33 O           2.9744    2.6610   -0.1417 O.3     1  UNL1       -0.4806
     34 O          -1.4779    1.7664    1.1156 O.3     1  UNL1       -0.3912
     35 O          -2.6954    3.2100    2.9626 O.3     1  UNL1       -0.3877
     36 H          -4.7146    6.8295    7.4127 H       1  UNL1        0.0236
     37 H          -6.2264    6.0869    6.8640 H       1  UNL1        0.0236
     38 H          -5.4054    7.2779    5.8456 H       1  UNL1        0.0236
     39 H          -3.4563    5.7391    5.5994 H       1  UNL1        0.0359
     40 H          -5.0933    3.7606    7.2491 H       1  UNL1        0.0236
     41 H          -3.5777    4.5491    7.7041 H       1  UNL1        0.0236
     42 H          -3.6017    3.3812    6.3730 H       1  UNL1        0.0236
     43 H          -7.7785    2.3247    5.3353 H       1  UNL1        0.0359
     44 H          -9.0904    1.6045    2.7162 H       1  UNL1        0.0236
     45 H          -9.0173    0.7250    4.2270 H       1  UNL1        0.0236
     46 H          -7.5481    0.8967    3.2602 H       1  UNL1        0.0236
     47 H          -9.8388    3.9172    3.7476 H       1  UNL1        0.0236
     48 H          -9.1520    4.3586    5.3123 H       1  UNL1        0.0236
     49 H         -10.1348    2.8965    5.1573 H       1  UNL1        0.0236
     50 H          -7.6169    2.3519    1.3241 H       1  UNL1        0.0610
     51 H          -7.1878    3.7417    0.3782 H       1  UNL1        0.0610
     52 H         -10.7167    4.0648    0.5462 H       1  UNL1        0.0524
     53 H          -9.8147    2.5537    0.3010 H       1  UNL1        0.0524
     54 H          -9.3228    4.0528   -0.5546 H       1  UNL1        0.0524
     55 H          -6.3950    6.9856    0.9178 H       1  UNL1        0.0624
     56 H          -5.8094    7.6400   -1.4074 H       1  UNL1        0.0646
     57 H          -3.4600    4.0833   -1.8462 H       1  UNL1        0.0646
     58 H          -4.0213    3.4067    0.4741 H       1  UNL1        0.0624
     59 H          -3.8246    7.1109    3.0714 H       1  UNL1        0.0622
     60 H          -1.6052    6.4221    2.7948 H       1  UNL1        0.0598
     61 H          -0.0574    4.7749    1.6252 H       1  UNL1        0.0318
     62 H          -1.5115    4.3055    0.7399 H       1  UNL1        0.0318
     63 H           0.3392    3.0479   -0.5507 H       1  UNL1        0.0403
     64 H           0.7307    1.4287    0.0506 H       1  UNL1        0.0403
     65 H           2.6407    2.1767   -0.9215 H       1  UNL1        0.2951
     66 H          -2.1815    1.9737    1.7716 H       1  UNL1        0.2098
     67 H          -3.1435    3.3014    3.8228 H       1  UNL1        0.2102
@<TRIPOS>BOND
     1     1     2    1
     2     2     3    1
     3     2     4    1
     4     4     5   ar
     5     5     6   ar
     6     6     7   ar
     7     7     8   ar
     8     8     9   ar
     9     4     9   ar
    10     8    10    1
    11    10    11    1
    12    10    12    1
    13     7    13    1
    14    13    14    1
    15    14    15    1
    16     6    16    1
    17    16    17   ar
    18    17    18   ar
    19    18    19   ar
    20    19    20   ar
    21    20    21   ar
    22    16    21   ar
    23    19    22    1
    24     5    23    1
    25    23    24    2
    26    25    27    1
    27    28    30    1
    28    30    31    1
    29    31    32    2
    30    31    33    1
    31    28    34    1
    32    25    35    1
    33    28    29    1
    34    28    27    1
    35    25    26    1
    36    25    24    1
    37     1    36    1
    38     1    37    1
    39     1    38    1
    40     2    39    1
    41     3    40    1
    42     3    41    1
    43     3    42    1
    44    10    43    1
    45    11    44    1
    46    11    45    1
    47    11    46    1
    48    12    47    1
    49    12    48    1
    50    12    49    1
    51    13    50    1
    52    13    51    1
    53    15    52    1
    54    15    53    1
    55    15    54    1
    56    17    55    1
    57    18    56    1
    58    20    57    1
    59    21    58    1
    60    23    59    1
    61    24    60    1
    62    27    61    1
    63    27    62    1
    64    30    63    1
    65    30    64    1
    66    33    65    1
    67    34    66    1
    68    35    67    1
