@<TRIPOS>MOLECULE
*****
 28 29 0 0 0
SMALL
GASTEIGER

@<TRIPOS>ATOM
      1 O           1.3984    0.8047   -0.2987 O.2     1  UNL1       -0.2500
      2 C           2.3476    0.0724   -0.0570 C.2     1  UNL1        0.3167
      3 O           2.7268   -0.1563    1.2294 O.3     1  UNL1       -0.4800
      4 C           3.1666   -0.7143   -1.0967 C.3     1  UNL1        0.1075
      5 C           2.8394   -0.4120   -2.5631 C.ar    1  UNL1       -0.0292
      6 C           2.8341   -1.4667   -3.4956 C.ar    1  UNL1       -0.0561
      7 C           2.5834   -1.2273   -4.8495 C.ar    1  UNL1       -0.0431
      8 C           2.3406    0.0702   -5.2893 C.ar    1  UNL1        0.0410
      9 CL          2.0337    0.3660   -6.9559 Cl      1  UNL1       -0.0835
     10 C           2.3497    1.1297   -4.3874 C.ar    1  UNL1       -0.0431
     11 C           2.6040    0.8909   -3.0335 C.ar    1  UNL1       -0.0561
     12 C           4.6741   -0.6281   -0.8398 C.ar    1  UNL1       -0.0110
     13 C           5.2926    0.6381   -0.7810 C.ar    1  UNL1       -0.0561
     14 C           6.6645    0.7624   -0.5545 C.ar    1  UNL1       -0.0614
     15 C           7.4482   -0.3734   -0.3847 C.ar    1  UNL1       -0.0604
     16 C           6.8594   -1.6347   -0.4415 C.ar    1  UNL1       -0.0431
     17 C           5.4848   -1.7651   -0.6688 C.ar    1  UNL1        0.0452
     18 CL          4.8474   -3.3704   -0.6967 Cl      1  UNL1       -0.0832
     19 H           3.4818   -0.7675    1.3319 H       1  UNL1        0.2951
     20 H           2.8118   -1.7377   -0.9194 H       1  UNL1        0.0512
     21 H           3.0287   -2.4891   -3.1764 H       1  UNL1        0.0621
     22 H           2.5816   -2.0560   -5.5525 H       1  UNL1        0.0632
     23 H           2.1580    2.1441   -4.7273 H       1  UNL1        0.0632
     24 H           2.6009    1.7403   -2.3527 H       1  UNL1        0.0621
     25 H           4.7095    1.5487   -0.9151 H       1  UNL1        0.0621
     26 H           7.1213    1.7492   -0.5165 H       1  UNL1        0.0618
     27 H           8.5176   -0.2777   -0.2122 H       1  UNL1        0.0618
     28 H           7.4818   -2.5172   -0.3094 H       1  UNL1        0.0632
@<TRIPOS>BOND
     1     1     2    2
     2     2     3    1
     3     2     4    1
     4     4     5    1
     5     5     6   ar
     6     6     7   ar
     7     7     8   ar
     8     8     9    1
     9     8    10   ar
    10    10    11   ar
    11     5    11   ar
    12     4    12    1
    13    12    13   ar
    14    13    14   ar
    15    14    15   ar
    16    15    16   ar
    17    16    17   ar
    18    12    17   ar
    19    17    18    1
    20     3    19    1
    21     4    20    1
    22     6    21    1
    23     7    22    1
    24    10    23    1
    25    11    24    1
    26    13    25    1
    27    14    26    1
    28    15    27    1
    29    16    28    1
