@<TRIPOS>MOLECULE
*****
 26 27 0 0 0
SMALL
GASTEIGER

@<TRIPOS>ATOM
      1 CL          1.1659    0.3695    0.0608 Cl      1  UNL1       -0.0698
      2 C           2.9028    0.2585    0.1282 C.2     1  UNL1        0.1148
      3 CL          3.7217    1.1627   -1.1150 Cl      1  UNL1       -0.0698
      4 C           3.5590   -0.4671    1.0648 C.2     1  UNL1        0.0189
      5 C           2.7979   -1.1870    2.1171 C.ar    1  UNL1       -0.0150
      6 C           2.6167   -2.5739    2.0258 C.ar    1  UNL1       -0.0526
      7 C           1.9121   -3.2590    3.0190 C.ar    1  UNL1       -0.0428
      8 C           1.3908   -2.5602    4.1062 C.ar    1  UNL1        0.0410
      9 CL          0.5238   -3.4050    5.3285 Cl      1  UNL1       -0.0835
     10 C           1.5689   -1.1821    4.2112 C.ar    1  UNL1       -0.0428
     11 C           2.2739   -0.4957    3.2194 C.ar    1  UNL1       -0.0526
     12 C           5.0416   -0.5451    1.0426 C.ar    1  UNL1       -0.0150
     13 C           5.6994   -1.3844    0.1314 C.ar    1  UNL1       -0.0526
     14 C           7.0944   -1.4611    0.1245 C.ar    1  UNL1       -0.0428
     15 C           7.8339   -0.7038    1.0310 C.ar    1  UNL1        0.0410
     16 CL          9.5515   -0.7996    1.0229 Cl      1  UNL1       -0.0835
     17 C           7.1915    0.1289    1.9453 C.ar    1  UNL1       -0.0428
     18 C           5.7965    0.2073    1.9529 C.ar    1  UNL1       -0.0526
     19 H           3.0200   -3.1304    1.1828 H       1  UNL1        0.0624
     20 H           1.7746   -4.3341    2.9387 H       1  UNL1        0.0632
     21 H           1.1628   -0.6376    5.0595 H       1  UNL1        0.0632
     22 H           2.4074    0.5799    3.3121 H       1  UNL1        0.0624
     23 H           5.1324   -1.9806   -0.5802 H       1  UNL1        0.0624
     24 H           7.5957   -2.1108   -0.5880 H       1  UNL1        0.0632
     25 H           7.7687    0.7177    2.6533 H       1  UNL1        0.0632
     26 H           5.3064    0.8597    2.6721 H       1  UNL1        0.0624
@<TRIPOS>BOND
     1     1     2    1
     2     2     3    1
     3     2     4    2
     4     4     5    1
     5     5     6   ar
     6     6     7   ar
     7     7     8   ar
     8     8     9    1
     9     8    10   ar
    10    10    11   ar
    11     5    11   ar
    12     4    12    1
    13    12    13   ar
    14    13    14   ar
    15    14    15   ar
    16    15    16    1
    17    15    17   ar
    18    17    18   ar
    19    12    18   ar
    20     6    19    1
    21     7    20    1
    22    10    21    1
    23    11    22    1
    24    13    23    1
    25    14    24    1
    26    17    25    1
    27    18    26    1
