@<TRIPOS>MOLECULE
*****
 72 75 0 0 0
SMALL
GASTEIGER

@<TRIPOS>ATOM
      1 C           1.8890    0.6684   -0.8269 C.3     1  UNL1       -0.0621
      2 C           2.2894   -0.8167   -0.7910 C.3     1  UNL1       -0.0405
      3 H           1.7121   -1.2732   -1.6049 H       1  UNL1        0.0301
      4 C           1.7950   -1.4933    0.5149 C.3     1  UNL1       -0.0502
      5 C           1.9113   -0.6740    1.8097 C.3     1  UNL1       -0.0526
      6 C           1.8379   -1.5618    3.0584 C.3     1  UNL1       -0.0507
      7 C           2.1354   -0.7854    4.3563 C.3     1  UNL1       -0.0467
      8 C           1.0246    0.2065    4.7020 C.3     1  UNL1       -0.0627
      9 C           2.3439   -1.7592    5.5178 C.3     1  UNL1       -0.0627
     10 C           3.8027   -0.9805   -1.1804 C.3     1  UNL1       -0.0325
     11 H           3.9746   -0.2165   -1.9513 H       1  UNL1        0.0309
     12 C           4.8024   -0.6747   -0.0693 C.3     1  UNL1       -0.0489
     13 C           5.1290   -2.0323    0.5187 C.3     1  UNL1       -0.0457
     14 C           5.3590   -2.9338   -0.7176 C.3     1  UNL1       -0.0136
     15 H           5.1074   -3.9684   -0.4482 H       1  UNL1        0.0351
     16 C           4.2963   -2.3764   -1.7587 C.3     1  UNL1       -0.0225
     17 C           4.8640   -2.1375   -3.1888 C.3     1  UNL1       -0.0463
     18 C           6.3508   -1.7818   -3.2397 C.3     1  UNL1       -0.0452
     19 C           7.1365   -2.9539   -2.6434 C.3     1  UNL1       -0.0102
     20 H           6.6623   -3.8659   -3.0382 H       1  UNL1        0.0354
     21 C           6.8306   -2.9616   -1.1475 C.2     1  UNL1       -0.0620
     22 C           7.8307   -2.9665   -0.2461 C.2     1  UNL1       -0.0620
     23 C           9.1975   -2.7133   -0.6004 C.2     1  UNL1       -0.0619
     24 C           9.6093   -2.7094   -1.8727 C.2     1  UNL1       -0.0607
     25 C           8.6796   -3.0956   -3.0247 C.3     1  UNL1       -0.0041
     26 C           9.1187   -2.3224   -4.3055 C.3     1  UNL1       -0.0410
     27 C           9.6314   -0.9118   -3.9900 C.3     1  UNL1       -0.0258
     28 C          10.8898   -0.9609   -3.1031 C.3     1  UNL1        0.0590
     29 H          10.8942   -0.0785   -2.4525 H       1  UNL1        0.0596
     30 C          10.9863   -2.2357   -2.2488 C.3     1  UNL1       -0.0048
     31 O          12.0540   -0.8619   -3.9266 O.3     1  UNL1       -0.3915
     32 C           8.9332   -4.6051   -3.3064 C.3     1  UNL1       -0.0553
     33 C           3.1722   -3.4232   -1.9250 C.3     1  UNL1       -0.0588
     34 H           2.4677    1.2680   -0.1181 H       1  UNL1        0.0233
     35 H           0.8252    0.7893   -0.5947 H       1  UNL1        0.0233
     36 H           2.0512    1.0867   -1.8264 H       1  UNL1        0.0233
     37 H           2.2711   -2.4660    0.6429 H       1  UNL1        0.0268
     38 H           0.7281   -1.7234    0.3832 H       1  UNL1        0.0268
     39 H           2.8484   -0.1192    1.8450 H       1  UNL1        0.0265
     40 H           1.1050    0.0676    1.8339 H       1  UNL1        0.0265
     41 H           2.5754   -2.3682    2.9580 H       1  UNL1        0.0268
     42 H           0.8524   -2.0396    3.1174 H       1  UNL1        0.0268
     43 H           3.0691   -0.2230    4.2263 H       1  UNL1        0.0295
     44 H           0.0604   -0.3011    4.8122 H       1  UNL1        0.0232
     45 H           0.9199    0.9742    3.9297 H       1  UNL1        0.0232
     46 H           1.2444    0.7209    5.6439 H       1  UNL1        0.0232
     47 H           1.4483   -2.3627    5.6982 H       1  UNL1        0.0232
     48 H           2.5826   -1.2187    6.4401 H       1  UNL1        0.0232
     49 H           3.1767   -2.4394    5.3089 H       1  UNL1        0.0232
     50 H           4.4538    0.0475    0.6663 H       1  UNL1        0.0268
     51 H           5.7116   -0.2392   -0.5042 H       1  UNL1        0.0268
     52 H           4.2989   -2.4237    1.1096 H       1  UNL1        0.0271
     53 H           5.9649   -1.9470    1.2146 H       1  UNL1        0.0271
     54 H           4.2851   -1.3644   -3.7104 H       1  UNL1        0.0271
     55 H           4.7238   -3.0395   -3.8019 H       1  UNL1        0.0271
     56 H           6.5507   -0.8433   -2.7109 H       1  UNL1        0.0271
     57 H           6.5901   -1.6148   -4.2915 H       1  UNL1        0.0271
     58 H           7.6449   -3.0400    0.8209 H       1  UNL1        0.0617
     59 H           9.8656   -2.4312    0.2101 H       1  UNL1        0.0617
     60 H           8.3223   -2.2917   -5.0538 H       1  UNL1        0.0275
     61 H           9.9367   -2.8597   -4.8071 H       1  UNL1        0.0275
     62 H           8.8456   -0.3526   -3.4691 H       1  UNL1        0.0290
     63 H           9.8425   -0.3793   -4.9242 H       1  UNL1        0.0290
     64 H          11.6062   -2.0298   -1.3670 H       1  UNL1        0.0335
     65 H          11.5153   -3.0307   -2.7893 H       1  UNL1        0.0335
     66 H          12.0374   -1.6031   -4.5557 H       1  UNL1        0.2098
     67 H           8.6365   -5.2312   -2.4567 H       1  UNL1        0.0238
     68 H           9.9902   -4.8128   -3.5105 H       1  UNL1        0.0238
     69 H           8.3625   -4.9377   -4.1819 H       1  UNL1        0.0238
     70 H           2.6965   -3.6853   -0.9789 H       1  UNL1        0.0235
     71 H           3.5772   -4.3595   -2.3295 H       1  UNL1        0.0235
     72 H           2.4006   -3.0829   -2.6234 H       1  UNL1        0.0235
@<TRIPOS>BOND
     1     2     4    1
     2     4     5    1
     3     5     6    1
     4     6     7    1
     5     7     8    1
     6     7     9    1
     7    10    12    1
     8    12    13    1
     9    13    14    1
    10    14    16    1
    11    10    16    1
    12    16    17    1
    13    17    18    1
    14    18    19    1
    15    19    21    1
    16    14    21    1
    17    21    22    2
    18    22    23    1
    19    23    24    2
    20    24    25    1
    21    19    25    1
    22    25    26    1
    23    26    27    1
    24    27    28    1
    25    28    30    1
    26    24    30    1
    27     2    10    1
    28    10    11    1
    29    14    15    1
    30    16    33    1
    31    19    20    1
    32    25    32    1
    33    28    31    1
    34    28    29    1
    35     2     3    1
    36     2     1    1
    37     1    34    1
    38     1    35    1
    39     1    36    1
    40     4    37    1
    41     4    38    1
    42     5    39    1
    43     5    40    1
    44     6    41    1
    45     6    42    1
    46     7    43    1
    47     8    44    1
    48     8    45    1
    49     8    46    1
    50     9    47    1
    51     9    48    1
    52     9    49    1
    53    12    50    1
    54    12    51    1
    55    13    52    1
    56    13    53    1
    57    17    54    1
    58    17    55    1
    59    18    56    1
    60    18    57    1
    61    22    58    1
    62    23    59    1
    63    26    60    1
    64    26    61    1
    65    27    62    1
    66    27    63    1
    67    30    64    1
    68    30    65    1
    69    31    66    1
    70    32    67    1
    71    32    68    1
    72    32    69    1
    73    33    70    1
    74    33    71    1
    75    33    72    1
