@<TRIPOS>MOLECULE
*****
 34 35 0 0 0
SMALL
GASTEIGER

@<TRIPOS>ATOM
      1 C           0.9475    0.1301    0.0452 C.2     1  UNL1       -0.0617
      2 C           0.2234    1.1642    0.4986 C.2     1  UNL1       -0.0617
      3 C          -1.2231    1.1600    0.5166 C.2     1  UNL1       -0.0612
      4 C          -1.9462    2.1990    0.9632 C.2     1  UNL1       -0.0546
      5 C          -3.4157    2.2249    0.9867 C.ar    1  UNL1       -0.0250
      6 C          -4.0772    3.4234    0.6886 C.ar    1  UNL1       -0.0546
      7 C          -5.4719    3.4957    0.7288 C.ar    1  UNL1       -0.0612
      8 C          -6.2188    2.3731    1.0796 C.ar    1  UNL1       -0.0617
      9 C          -5.5720    1.1801    1.3949 C.ar    1  UNL1       -0.0612
     10 C          -4.1770    1.1074    1.3538 C.ar    1  UNL1       -0.0546
     11 C           2.3941    0.1337    0.0286 C.2     1  UNL1       -0.0612
     12 C           3.1170   -0.8987   -0.4330 C.2     1  UNL1       -0.0546
     13 C           4.5863   -0.9198   -0.4681 C.ar    1  UNL1       -0.0250
     14 C           5.3661   -0.4090    0.5780 C.ar    1  UNL1       -0.0546
     15 C           6.7609   -0.4755    0.5228 C.ar    1  UNL1       -0.0612
     16 C           7.3892   -1.0626   -0.5735 C.ar    1  UNL1       -0.0617
     17 C           6.6242   -1.5886   -1.6122 C.ar    1  UNL1       -0.0612
     18 C           5.2296   -1.5228   -1.5567 C.ar    1  UNL1       -0.0546
     19 H           0.4491   -0.7609   -0.3312 H       1  UNL1        0.0618
     20 H           0.7219    2.0555    0.8743 H       1  UNL1        0.0618
     21 H          -1.7197    0.2702    0.1353 H       1  UNL1        0.0618
     22 H          -1.4560    3.1025    1.3181 H       1  UNL1        0.0623
     23 H          -3.5115    4.3103    0.4122 H       1  UNL1        0.0623
     24 H          -5.9737    4.4290    0.4873 H       1  UNL1        0.0618
     25 H          -7.3036    2.4294    1.1124 H       1  UNL1        0.0618
     26 H          -6.1518    0.3058    1.6788 H       1  UNL1        0.0618
     27 H          -3.6931    0.1720    1.6235 H       1  UNL1        0.0623
     28 H           2.8905    1.0277    0.4002 H       1  UNL1        0.0618
     29 H           2.6261   -1.7830   -0.8328 H       1  UNL1        0.0623
     30 H           4.8972    0.0353    1.4524 H       1  UNL1        0.0623
     31 H           7.3551   -0.0737    1.3393 H       1  UNL1        0.0618
     32 H           8.4740   -1.1148   -0.6156 H       1  UNL1        0.0618
     33 H           7.1116   -2.0516   -2.4662 H       1  UNL1        0.0618
     34 H           4.6496   -1.9387   -2.3774 H       1  UNL1        0.0623
@<TRIPOS>BOND
     1     1     2    2
     2     2     3    1
     3     3     4    2
     4     4     5    1
     5     5     6   ar
     6     6     7   ar
     7     7     8   ar
     8     8     9   ar
     9     9    10   ar
    10     5    10   ar
    11     1    11    1
    12    11    12    2
    13    12    13    1
    14    13    14   ar
    15    14    15   ar
    16    15    16   ar
    17    16    17   ar
    18    17    18   ar
    19    13    18   ar
    20     1    19    1
    21     2    20    1
    22     3    21    1
    23     4    22    1
    24     6    23    1
    25     7    24    1
    26     8    25    1
    27     9    26    1
    28    10    27    1
    29    11    28    1
    30    12    29    1
    31    14    30    1
    32    15    31    1
    33    16    32    1
    34    17    33    1
    35    18    34    1
