@<TRIPOS>MOLECULE
*****
 72 75 0 0 0
SMALL
GASTEIGER

@<TRIPOS>ATOM
      1 C           1.9771   -0.0326    0.8580 C.3     1  UNL1       -0.0621
      2 C           2.8755   -0.6254    1.9507 C.3     1  UNL1       -0.0403
      3 H           2.2166   -1.2085    2.6092 H       1  UNL1        0.0301
      4 C           3.4280    0.5179    2.8515 C.3     1  UNL1       -0.0467
      5 C           4.2167    1.6209    2.1311 C.3     1  UNL1       -0.0343
      6 C           4.7089    2.6719    3.0912 C.2     1  UNL1       -0.0853
      7 C           4.6340    4.0119    2.9643 C.2     1  UNL1       -0.0796
      8 C           4.0274    4.7503    1.8024 C.3     1  UNL1       -0.0440
      9 C           5.2070    4.9127    4.0285 C.3     1  UNL1       -0.0440
     10 C           3.9982   -1.6010    1.4894 C.3     1  UNL1       -0.0328
     11 H           4.6820   -1.6853    2.3493 H       1  UNL1        0.0309
     12 C           4.8784   -1.1587    0.2917 C.3     1  UNL1       -0.0492
     13 C           5.3813   -2.4443   -0.3877 C.3     1  UNL1       -0.0492
     14 C           4.9654   -3.5565    0.5657 C.3     1  UNL1       -0.0320
     15 H           5.6994   -3.5500    1.3892 H       1  UNL1        0.0309
     16 C           3.6085   -3.0680    1.1205 C.3     1  UNL1       -0.0259
     17 C           3.2676   -3.9738    2.3152 C.3     1  UNL1       -0.0468
     18 C           3.1872   -5.4534    1.8935 C.3     1  UNL1       -0.0486
     19 C           4.4406   -5.9664    1.1307 C.3     1  UNL1       -0.0285
     20 H           5.2450   -5.9806    1.8846 H       1  UNL1        0.0312
     21 C           4.9262   -4.9875    0.0254 C.3     1  UNL1       -0.0307
     22 H           4.2412   -5.0341   -0.8297 H       1  UNL1        0.0309
     23 C           6.3145   -5.4274   -0.4657 C.3     1  UNL1       -0.0311
     24 C           6.3299   -6.8703   -0.8561 C.2     1  UNL1       -0.0839
     25 C           5.4209   -7.7697   -0.4386 C.2     1  UNL1       -0.0648
     26 C           4.3088   -7.4448    0.5736 C.3     1  UNL1       -0.0078
     27 C           2.9551   -7.6827   -0.1554 C.3     1  UNL1       -0.0413
     28 C           2.8438   -9.0487   -0.8461 C.3     1  UNL1       -0.0258
     29 C           4.0214   -9.3338   -1.7787 C.3     1  UNL1        0.0590
     30 H           3.9636   -8.6607   -2.6431 H       1  UNL1        0.0596
     31 C           5.3689   -9.1396   -1.0751 C.3     1  UNL1       -0.0051
     32 O           3.9165  -10.6648   -2.2807 O.3     1  UNL1       -0.3915
     33 C           4.4177   -8.4043    1.7860 C.3     1  UNL1       -0.0556
     34 C           2.4662   -3.1277    0.0821 C.3     1  UNL1       -0.0590
     35 H           2.5418    0.4887    0.0817 H       1  UNL1        0.0233
     36 H           1.2791    0.6919    1.2939 H       1  UNL1        0.0233
     37 H           1.3596   -0.7872    0.3710 H       1  UNL1        0.0233
     38 H           4.0477    0.0785    3.6444 H       1  UNL1        0.0271
     39 H           2.5762    0.9832    3.3674 H       1  UNL1        0.0271
     40 H           5.0974    1.1975    1.6452 H       1  UNL1        0.0307
     41 H           3.5941    2.0611    1.3506 H       1  UNL1        0.0307
     42 H           5.2046    2.2693    3.9750 H       1  UNL1        0.0571
     43 H           3.6743    4.0981    1.0017 H       1  UNL1        0.0274
     44 H           4.7678    5.4260    1.3605 H       1  UNL1        0.0274
     45 H           3.1757    5.3492    2.1415 H       1  UNL1        0.0274
     46 H           5.6345    4.3501    4.8651 H       1  UNL1        0.0274
     47 H           4.4276    5.5673    4.4317 H       1  UNL1        0.0274
     48 H           6.0026    5.5364    3.6074 H       1  UNL1        0.0274
     49 H           5.7365   -0.5777    0.6435 H       1  UNL1        0.0268
     50 H           4.3434   -0.5486   -0.4395 H       1  UNL1        0.0268
     51 H           6.4655   -2.4157   -0.5375 H       1  UNL1        0.0268
     52 H           4.9144   -2.5633   -1.3718 H       1  UNL1        0.0268
     53 H           2.3155   -3.6732    2.7682 H       1  UNL1        0.0271
     54 H           4.0287   -3.8725    3.0996 H       1  UNL1        0.0271
     55 H           2.2869   -5.5825    1.2863 H       1  UNL1        0.0268
     56 H           3.0335   -6.0563    2.7958 H       1  UNL1        0.0268
     57 H           7.0816   -5.2575    0.2994 H       1  UNL1        0.0310
     58 H           6.5936   -4.8285   -1.3407 H       1  UNL1        0.0310
     59 H           7.0906   -7.1568   -1.5798 H       1  UNL1        0.0572
     60 H           2.7987   -6.9021   -0.9111 H       1  UNL1        0.0274
     61 H           2.1206   -7.6080    0.5515 H       1  UNL1        0.0274
     62 H           1.9084   -9.0955   -1.4180 H       1  UNL1        0.0290
     63 H           2.7584   -9.8455   -0.0970 H       1  UNL1        0.0290
     64 H           6.1728   -9.2792   -1.8093 H       1  UNL1        0.0335
     65 H           5.5344   -9.9223   -0.3261 H       1  UNL1        0.0335
     66 H           3.9509  -11.2734   -1.5232 H       1  UNL1        0.2098
     67 H           5.3750   -8.2759    2.3049 H       1  UNL1        0.0238
     68 H           4.3479   -9.4592    1.5043 H       1  UNL1        0.0238
     69 H           3.6178   -8.2237    2.5114 H       1  UNL1        0.0238
     70 H           2.6073   -2.4142   -0.7353 H       1  UNL1        0.0235
     71 H           1.5034   -2.9168    0.5589 H       1  UNL1        0.0235
     72 H           2.3609   -4.1112   -0.3830 H       1  UNL1        0.0235
@<TRIPOS>BOND
     1     2     4    1
     2     4     5    1
     3     5     6    1
     4     6     7    2
     5     7     8    1
     6     7     9    1
     7    10    12    1
     8    12    13    1
     9    13    14    1
    10    14    16    1
    11    10    16    1
    12    16    17    1
    13    17    18    1
    14    18    19    1
    15    19    21    1
    16    14    21    1
    17    21    23    1
    18    23    24    1
    19    24    25    2
    20    25    26    1
    21    19    26    1
    22    26    27    1
    23    27    28    1
    24    28    29    1
    25    29    31    1
    26    25    31    1
    27    14    15    1
    28    16    34    1
    29    19    20    1
    30    21    22    1
    31    26    33    1
    32    29    32    1
    33    29    30    1
    34    10    11    1
    35    10     2    1
    36     2     3    1
    37     2     1    1
    38     1    35    1
    39     1    36    1
    40     1    37    1
    41     4    38    1
    42     4    39    1
    43     5    40    1
    44     5    41    1
    45     6    42    1
    46     8    43    1
    47     8    44    1
    48     8    45    1
    49     9    46    1
    50     9    47    1
    51     9    48    1
    52    12    49    1
    53    12    50    1
    54    13    51    1
    55    13    52    1
    56    17    53    1
    57    17    54    1
    58    18    55    1
    59    18    56    1
    60    23    57    1
    61    23    58    1
    62    24    59    1
    63    27    60    1
    64    27    61    1
    65    28    62    1
    66    28    63    1
    67    31    64    1
    68    31    65    1
    69    32    66    1
    70    33    67    1
    71    33    68    1
    72    33    69    1
    73    34    70    1
    74    34    71    1
    75    34    72    1
