@<TRIPOS>MOLECULE
*****
 52 54 0 0 0
SMALL
GASTEIGER

@<TRIPOS>ATOM
      1 C           1.1586    0.1303   -0.2089 C.3     1  UNL1        0.0366
      2 O           2.4749   -0.1334    0.2578 O.3     1  UNL1       -0.3796
      3 C           3.0685    1.0269    0.8410 C.3     1  UNL1        0.0814
      4 C           4.4466    0.6688    1.3922 C.3     1  UNL1        0.1130
      5 O           5.0330    1.8432    1.9519 O.3     1  UNL1       -0.4860
      6 C           6.3691    1.8180    2.2572 C.ar    1  UNL1        0.1628
      7 C           7.1870    0.7045    2.4831 C.ar    1  UNL1        0.1641
      8 C           8.5405    0.9169    2.7836 C.ar    1  UNL1        0.0098
      9 C           9.0932    2.1857    2.9107 C.ar    1  UNL1        0.0797
     10 C           8.2768    3.3062    2.7291 C.ar    1  UNL1        0.0441
     11 C           6.9164    3.1018    2.3857 C.ar    1  UNL1       -0.0038
     12 C           8.9063    4.5586    2.9187 C.ar    1  UNL1        0.1340
     13 N          10.2128    4.6463    3.2208 N.ar    1  UNL1       -0.2200
     14 C          10.8898    3.5042    3.3500 C.ar    1  UNL1        0.1187
     15 N          10.3889    2.2741    3.2158 N.ar    1  UNL1       -0.2352
     16 N           8.1372    5.7454    2.7644 N.pl3   1  UNL1       -0.2988
     17 C           8.5287    7.1053    2.8202 C.ar    1  UNL1        0.0335
     18 C           7.5180    8.0808    2.8960 C.ar    1  UNL1       -0.0404
     19 C           7.8206    9.4455    2.9118 C.ar    1  UNL1       -0.0589
     20 C           9.1461    9.8628    2.8349 C.ar    1  UNL1       -0.0462
     21 C          10.1613    8.9153    2.7167 C.ar    1  UNL1        0.0264
     22 C           9.8484    7.5500    2.6819 C.ar    1  UNL1       -0.0251
     23 C          11.5271    9.3377    2.6420 C.1     1  UNL1       -0.0696
     24 C          12.6751    9.6876    2.5974 C.1     1  UNL1       -0.1139
     25 O           6.6209   -0.5392    2.4224 O.3     1  UNL1       -0.4860
     26 C           7.4284   -1.6741    2.7330 C.3     1  UNL1        0.1130
     27 C           6.5474   -2.9196    2.7103 C.3     1  UNL1        0.0814
     28 O           7.3478   -4.0666    2.9925 O.3     1  UNL1       -0.3796
     29 C           6.5670   -5.2542    3.0220 C.3     1  UNL1        0.0366
     30 H           0.7761   -0.7746   -0.6887 H       1  UNL1        0.0524
     31 H           1.1639    0.9408   -0.9439 H       1  UNL1        0.0524
     32 H           0.5026    0.3846    0.6292 H       1  UNL1        0.0524
     33 H           3.1606    1.8183    0.0875 H       1  UNL1        0.0593
     34 H           2.4342    1.4085    1.6505 H       1  UNL1        0.0593
     35 H           5.0617    0.2658    0.5780 H       1  UNL1        0.0720
     36 H           4.3130   -0.0970    2.1646 H       1  UNL1        0.0720
     37 H           9.2168    0.0818    2.9439 H       1  UNL1        0.0677
     38 H           6.2638    3.9529    2.2037 H       1  UNL1        0.0663
     39 H          11.9445    3.5832    3.5892 H       1  UNL1        0.1048
     40 H           7.2404    5.6232    3.2229 H       1  UNL1        0.1536
     41 H           6.4730    7.7838    2.9448 H       1  UNL1        0.0636
     42 H           7.0226   10.1797    2.9830 H       1  UNL1        0.0619
     43 H           9.3816   10.9238    2.8581 H       1  UNL1        0.0630
     44 H          10.6608    6.8416    2.5567 H       1  UNL1        0.0648
     45 H          13.6947    9.9930    2.5660 H       1  UNL1        0.1232
     46 H           7.8740   -1.5774    3.7309 H       1  UNL1        0.0720
     47 H           8.2312   -1.7858    1.9939 H       1  UNL1        0.0720
     48 H           5.7503   -2.8228    3.4576 H       1  UNL1        0.0593
     49 H           6.0729   -3.0247    1.7272 H       1  UNL1        0.0593
     50 H           7.2340   -6.0996    3.2112 H       1  UNL1        0.0524
     51 H           6.0675   -5.4106    2.0611 H       1  UNL1        0.0524
     52 H           5.8287   -5.2046    3.8281 H       1  UNL1        0.0524
@<TRIPOS>BOND
     1     1     2    1
     2     2     3    1
     3     3     4    1
     4     4     5    1
     5     5     6    1
     6     6     7   ar
     7     7     8   ar
     8     8     9   ar
     9     9    10   ar
    10    10    11   ar
    11     6    11   ar
    12    10    12   ar
    13    12    13   ar
    14    13    14   ar
    15    14    15   ar
    16     9    15   ar
    17    12    16    1
    18    16    17    1
    19    17    18   ar
    20    18    19   ar
    21    19    20   ar
    22    20    21   ar
    23    21    22   ar
    24    17    22   ar
    25    21    23    1
    26    23    24    3
    27     7    25    1
    28    25    26    1
    29    26    27    1
    30    27    28    1
    31    28    29    1
    32     1    30    1
    33     1    31    1
    34     1    32    1
    35     3    33    1
    36     3    34    1
    37     4    35    1
    38     4    36    1
    39     8    37    1
    40    11    38    1
    41    14    39    1
    42    16    40    1
    43    18    41    1
    44    19    42    1
    45    20    43    1
    46    22    44    1
    47    24    45    1
    48    26    46    1
    49    26    47    1
    50    27    48    1
    51    27    49    1
    52    29    50    1
    53    29    51    1
    54    29    52    1
