@<TRIPOS>MOLECULE
*****
 28 29 0 0 0
SMALL
GASTEIGER

@<TRIPOS>ATOM
      1 C          -0.4629    1.1646    0.7384 C.ar    1  UNL1       -0.0565
      2 C           0.9237    1.0754    0.5840 C.ar    1  UNL1       -0.0431
      3 C           1.4710    0.0286   -0.1490 C.ar    1  UNL1        0.0410
      4 C           0.6428   -0.9293   -0.7239 C.ar    1  UNL1       -0.0431
      5 C          -0.7448   -0.8397   -0.5676 C.ar    1  UNL1       -0.0565
      6 C          -1.3243    0.2114    0.1600 C.ar    1  UNL1       -0.0373
      7 C          -2.8367    0.3578    0.3567 C.3     1  UNL1        0.0391
      8 C          -3.4420   -0.7186    1.2684 C.ar    1  UNL1       -0.0373
      9 C          -3.6288   -2.0486    0.8606 C.ar    1  UNL1       -0.0565
     10 C          -4.1898   -2.9945    1.7258 C.ar    1  UNL1       -0.0431
     11 C          -4.5707   -2.6232    3.0109 C.ar    1  UNL1        0.0410
     12 C          -4.3904   -1.3136    3.4417 C.ar    1  UNL1       -0.0431
     13 C          -3.8267   -0.3698    2.5783 C.ar    1  UNL1       -0.0565
     14 CL         -5.2644   -3.7868    4.0702 Cl      1  UNL1       -0.0835
     15 C          -3.6919    0.6835   -0.9052 C.3     1  UNL1        0.1185
     16 CL         -3.2249    2.2696   -1.6096 Cl      1  UNL1       -0.1036
     17 CL         -3.6713   -0.5309   -2.2130 Cl      1  UNL1       -0.1036
     18 CL          3.1761   -0.0834   -0.3433 Cl      1  UNL1       -0.0835
     19 H          -0.8627    1.9964    1.3161 H       1  UNL1        0.0621
     20 H           1.5667    1.8256    1.0363 H       1  UNL1        0.0632
     21 H           1.0671   -1.7504   -1.2960 H       1  UNL1        0.0632
     22 H          -1.3516   -1.6131   -1.0287 H       1  UNL1        0.0621
     23 H          -2.9442    1.2796    0.9511 H       1  UNL1        0.0423
     24 H          -3.3377   -2.3859   -0.1299 H       1  UNL1        0.0621
     25 H          -4.3225   -4.0195    1.3884 H       1  UNL1        0.0632
     26 H          -4.6822   -1.0201    4.4467 H       1  UNL1        0.0632
     27 H          -3.6904    0.6459    2.9465 H       1  UNL1        0.0621
     28 H          -4.7413    0.7898   -0.6116 H       1  UNL1        0.0643
@<TRIPOS>BOND
     1     1     2   ar
     2     2     3   ar
     3     3     4   ar
     4     4     5   ar
     5     5     6   ar
     6     1     6   ar
     7     6     7    1
     8     7     8    1
     9     8     9   ar
    10     9    10   ar
    11    10    11   ar
    12    11    12   ar
    13    12    13   ar
    14     8    13   ar
    15    11    14    1
    16     7    15    1
    17    15    16    1
    18    15    17    1
    19     3    18    1
    20     1    19    1
    21     2    20    1
    22     4    21    1
    23     5    22    1
    24     7    23    1
    25     9    24    1
    26    10    25    1
    27    12    26    1
    28    13    27    1
    29    15    28    1
