@<TRIPOS>MOLECULE
*****
 15 15 0 0 0
SMALL
GASTEIGER

@<TRIPOS>ATOM
      1 C          -1.1174   -0.7086    0.0992 C.ar    1  UNL1        0.0594
      2 C           0.0697   -1.3082   -0.0564 C.ar    1  UNL1        0.2302
      3 N           1.2615   -0.6500   -0.2145 N.ar    1  UNL1       -0.2078
      4 C           1.2193    0.6623   -0.2110 C.ar    1  UNL1        0.1921
      5 C          -0.0789    1.4450    0.0110 C.ar    1  UNL1        0.2796
      6 O          -0.1051    2.6590    0.1122 O.2     1  UNL1       -0.2654
      7 N          -1.2028    0.6560    0.1280 N.ar    1  UNL1       -0.3230
      8 C           2.5454    1.3755   -0.4264 C.2     1  UNL1        0.2653
      9 O           2.6334    2.3818   -1.1066 O.2     1  UNL1       -0.2686
     10 N           3.6257    0.7513    0.1415 N.am    1  UNL1       -0.3239
     11 F           0.1077   -2.6573   -0.0667 F       1  UNL1       -0.1823
     12 H          -2.0354   -1.2729    0.2158 H       1  UNL1        0.0853
     13 H          -2.0870    1.1292    0.2719 H       1  UNL1        0.1685
     14 H           3.5248   -0.2104    0.4474 H       1  UNL1        0.1453
     15 H           4.5438    1.0832   -0.1207 H       1  UNL1        0.1453
@<TRIPOS>BOND
     1     1     2   ar
     2     2     3   ar
     3     3     4   ar
     4     4     5   ar
     5     5     6    2
     6     5     7   ar
     7     1     7   ar
     8     4     8    1
     9     8     9    2
    10     8    10   am
    11     2    11    1
    12     1    12    1
    13     7    13    1
    14    10    14    1
    15    10    15    1
