@<TRIPOS>MOLECULE
*****
 27 29 0 0 0
SMALL
GASTEIGER

@<TRIPOS>ATOM
      1 O           0.9675    0.1413    0.1800 O.2     1  UNL1       -0.2870
      2 C           2.1876    0.0960    0.0987 C.ar    1  UNL1        0.1931
      3 C           2.8934   -1.1924   -0.0082 C.ar    1  UNL1        0.0287
      4 C           4.2349   -1.2189   -0.0586 C.ar    1  UNL1        0.1392
      5 C           5.0175   -2.4803   -0.1742 C.ar    1  UNL1        0.0174
      6 C           6.3674   -2.4370   -0.5689 C.ar    1  UNL1       -0.0511
      7 C           7.1328   -3.6024   -0.6825 C.ar    1  UNL1       -0.0611
      8 C           6.5630   -4.8399   -0.4047 C.ar    1  UNL1       -0.0617
      9 C           5.2323   -4.9104   -0.0061 C.ar    1  UNL1       -0.0611
     10 C           4.4698   -3.7425    0.1141 C.ar    1  UNL1       -0.0511
     11 O           5.0187   -0.0694   -0.0266 O.2     1  UNL1       -0.4546
     12 C           4.4026    1.1544    0.0225 C.ar    1  UNL1        0.1392
     13 C           5.2222    2.2828   -0.0010 C.ar    1  UNL1       -0.0186
     14 C           4.6529    3.5576    0.0452 C.ar    1  UNL1       -0.0582
     15 C           3.2662    3.7044    0.1189 C.ar    1  UNL1       -0.0609
     16 C           2.4455    2.5761    0.1434 C.ar    1  UNL1       -0.0474
     17 C           3.0218    1.3036    0.0918 C.ar    1  UNL1        0.0640
     18 H           2.2563   -2.0645   -0.0492 H       1  UNL1        0.0693
     19 H           6.8480   -1.4884   -0.7997 H       1  UNL1        0.0625
     20 H           8.1738   -3.5388   -0.9889 H       1  UNL1        0.0618
     21 H           7.1552   -5.7467   -0.4951 H       1  UNL1        0.0618
     22 H           4.7833   -5.8753    0.2167 H       1  UNL1        0.0618
     23 H           3.4411   -3.8503    0.4471 H       1  UNL1        0.0625
     24 H           6.3019    2.1720   -0.0578 H       1  UNL1        0.0654
     25 H           5.2912    4.4380    0.0235 H       1  UNL1        0.0619
     26 H           2.8246    4.6977    0.1554 H       1  UNL1        0.0618
     27 H           1.3648    2.6880    0.1985 H       1  UNL1        0.0626
@<TRIPOS>BOND
     1     1     2    2
     2     2     3   ar
     3     3     4   ar
     4     4     5    1
     5     5     6   ar
     6     6     7   ar
     7     7     8   ar
     8     8     9   ar
     9     9    10   ar
    10     5    10   ar
    11     4    11   ar
    12    11    12   ar
    13    12    13   ar
    14    13    14   ar
    15    14    15   ar
    16    15    16   ar
    17    16    17   ar
    18     2    17   ar
    19    12    17   ar
    20     3    18    1
    21     6    19    1
    22     7    20    1
    23     8    21    1
    24     9    22    1
    25    10    23    1
    26    13    24    1
    27    14    25    1
    28    15    26    1
    29    16    27    1
