@<TRIPOS>MOLECULE
*****
 30 31 0 0 0
SMALL
GASTEIGER

@<TRIPOS>ATOM
      1 O           1.1756    1.2093    0.5056 O.2     1  UNL1       -0.2451
      2 C           2.4217    0.9570    0.3625 C.2     1  UNL1        0.3386
      3 O           3.1551    1.4166   -0.5814 O.3     1  UNL1       -0.4771
      4 C           3.1248    0.2562    1.4956 C.ar    1  UNL1        0.0799
      5 C           3.6222    1.1982    2.4261 C.ar    1  UNL1       -0.0460
      6 C           4.3023    0.8417    3.5796 C.ar    1  UNL1       -0.0609
      7 C           4.5071   -0.4966    3.8336 C.ar    1  UNL1       -0.0600
      8 C           4.0258   -1.4383    2.9257 C.ar    1  UNL1       -0.0397
      9 C           3.3268   -1.1380    1.7327 C.ar    1  UNL1        0.0454
     10 N           2.9796   -2.2740    1.0781 N.pl3   1  UNL1       -0.3138
     11 C           2.3947   -2.4124   -0.1232 C.ar    1  UNL1        0.0319
     12 C           2.0910   -3.7165   -0.5378 C.ar    1  UNL1       -0.0405
     13 C           1.4837   -3.9953   -1.7622 C.ar    1  UNL1       -0.0595
     14 C           1.1503   -2.9498   -2.6120 C.ar    1  UNL1       -0.0500
     15 C           1.4245   -1.6362   -2.2420 C.ar    1  UNL1        0.0566
     16 C           1.0838   -0.5130   -3.1605 C.3     1  UNL1        0.4175
     17 F           1.9754   -0.3952   -4.1956 F       1  UNL1       -0.1659
     18 F          -0.1198   -0.7324   -3.7938 F       1  UNL1       -0.1659
     19 F           0.9605    0.7274   -2.6298 F       1  UNL1       -0.1659
     20 C           2.0608   -1.4061   -1.0241 C.ar    1  UNL1       -0.0289
     21 H           4.0629    1.1883   -0.6228 H       1  UNL1        0.2954
     22 H           3.4710    2.2013    2.2365 H       1  UNL1        0.0626
     23 H           4.6473    1.5620    4.2331 H       1  UNL1        0.0618
     24 H           5.0095   -0.7974    4.6834 H       1  UNL1        0.0618
     25 H           4.1924   -2.4338    3.1408 H       1  UNL1        0.0636
     26 H           3.1847   -3.1139    1.5489 H       1  UNL1        0.1522
     27 H           2.3262   -4.5024    0.0883 H       1  UNL1        0.0636
     28 H           1.2840   -4.9707   -2.0338 H       1  UNL1        0.0618
     29 H           0.6988   -3.1465   -3.5189 H       1  UNL1        0.0623
     30 H           2.2982   -0.4330   -0.7758 H       1  UNL1        0.0642
@<TRIPOS>BOND
     1     1     2    2
     2     2     3    1
     3     2     4    1
     4     4     5   ar
     5     5     6   ar
     6     6     7   ar
     7     7     8   ar
     8     8     9   ar
     9     4     9   ar
    10     9    10    1
    11    10    11    1
    12    11    12   ar
    13    12    13   ar
    14    13    14   ar
    15    14    15   ar
    16    15    16    1
    17    16    17    1
    18    16    18    1
    19    16    19    1
    20    15    20   ar
    21    11    20   ar
    22     3    21    1
    23     5    22    1
    24     6    23    1
    25     7    24    1
    26     8    25    1
    27    10    26    1
    28    12    27    1
    29    13    28    1
    30    14    29    1
    31    20    30    1
