@<TRIPOS>MOLECULE
*****
 56 58 0 0 0
SMALL
GASTEIGER

@<TRIPOS>ATOM
      1 C          -4.3650    0.8043   -0.6947 C.3     1  UNL1       -0.0445
      2 C          -3.6943   -0.2980    0.1263 C.3     1  UNL1        0.0295
      3 C          -4.0886   -1.6902   -0.3823 C.3     1  UNL1       -0.0445
      4 N          -3.8896   -0.0798    1.5699 N.ar    1  UNL1       -0.3372
      5 C          -5.0521   -0.3674    2.2760 C.ar    1  UNL1        0.0503
      6 C          -6.3014   -0.8725    1.8676 C.ar    1  UNL1       -0.0376
      7 C          -7.3053   -1.0576    2.8232 C.ar    1  UNL1       -0.0598
      8 C          -7.0879   -0.7348    4.1542 C.ar    1  UNL1       -0.0611
      9 C          -5.8582   -0.2102    4.5553 C.ar    1  UNL1       -0.0520
     10 C          -4.8211   -0.0253    3.6115 C.ar    1  UNL1        0.0082
     11 C          -3.5076    0.5303    3.6974 C.ar    1  UNL1        0.0147
     12 C          -2.9436    0.4901    2.4277 C.ar    1  UNL1        0.0507
     13 C          -1.7342    1.0011    1.8857 C.2     1  UNL1       -0.0391
     14 C          -0.4808    0.7157    2.2702 C.2     1  UNL1       -0.0539
     15 C           0.1505   -0.2045    3.2726 C.3     1  UNL1        0.0761
     16 H           1.1555   -0.4268    2.8955 H       1  UNL1        0.0638
     17 C          -0.4958   -1.5423    3.6547 C.3     1  UNL1        0.0034
     18 C          -0.5590   -2.6295    2.5672 C.3     1  UNL1        0.0679
     19 H          -0.7341   -3.5892    3.0697 H       1  UNL1        0.0599
     20 C           0.6516   -2.7728    1.6462 C.3     1  UNL1        0.0708
     21 C           1.8975   -3.2148    2.3651 C.2     1  UNL1        0.3072
     22 O           2.0272   -3.2815    3.5763 O.2     1  UNL1       -0.2509
     23 O           2.9073   -3.5091    1.5138 O.3     1  UNL1       -0.4806
     24 O          -1.6901   -2.4211    1.7218 O.3     1  UNL1       -0.3912
     25 O           0.3734    0.5868    4.4399 O.3     1  UNL1       -0.3877
     26 C          -2.8902    1.1438    4.8684 C.ar    1  UNL1       -0.0151
     27 C          -2.7516    0.4066    6.0548 C.ar    1  UNL1       -0.0512
     28 C          -2.1893    0.9948    7.1892 C.ar    1  UNL1       -0.0259
     29 C          -1.7727    2.3197    7.1374 C.ar    1  UNL1        0.1234
     30 C          -1.9121    3.0699    5.9760 C.ar    1  UNL1       -0.0259
     31 C          -2.4755    2.4831    4.8408 C.ar    1  UNL1       -0.0512
     32 F          -1.2350    2.8838    8.2272 F       1  UNL1       -0.2055
     33 H          -4.1311    0.6895   -1.7584 H       1  UNL1        0.0249
     34 H          -4.0203    1.7953   -0.3801 H       1  UNL1        0.0249
     35 H          -5.4543    0.7841   -0.5855 H       1  UNL1        0.0249
     36 H          -2.6153   -0.2316   -0.0521 H       1  UNL1        0.0522
     37 H          -5.1504   -1.7589   -0.6319 H       1  UNL1        0.0249
     38 H          -3.8584   -2.4764    0.3416 H       1  UNL1        0.0249
     39 H          -3.5429   -1.9152   -1.3061 H       1  UNL1        0.0249
     40 H          -6.5183   -1.1033    0.8321 H       1  UNL1        0.0638
     41 H          -8.2727   -1.4470    2.5145 H       1  UNL1        0.0618
     42 H          -7.8808   -0.8705    4.8848 H       1  UNL1        0.0618
     43 H          -5.7091    0.0729    5.5936 H       1  UNL1        0.0624
     44 H          -1.8451    1.7465    1.0983 H       1  UNL1        0.0636
     45 H           0.2838    1.2991    1.7527 H       1  UNL1        0.0598
     46 H          -1.4950   -1.3751    4.0638 H       1  UNL1        0.0318
     47 H           0.0725   -1.9492    4.5018 H       1  UNL1        0.0318
     48 H           0.8516   -1.8403    1.1082 H       1  UNL1        0.0403
     49 H           0.4170   -3.5291    0.8858 H       1  UNL1        0.0403
     50 H           2.6734   -3.4091    0.5707 H       1  UNL1        0.2951
     51 H          -2.4574   -2.2550    2.3029 H       1  UNL1        0.2098
     52 H           0.7915    0.0207    5.1099 H       1  UNL1        0.2102
     53 H          -3.0725   -0.6312    6.0967 H       1  UNL1        0.0624
     54 H          -2.0730    0.4300    8.1079 H       1  UNL1        0.0646
     55 H          -1.5796    4.1021    5.9576 H       1  UNL1        0.0646
     56 H          -2.5864    3.0743    3.9358 H       1  UNL1        0.0624
@<TRIPOS>BOND
     1     1     2    1
     2     2     3    1
     3     2     4    1
     4     4     5   ar
     5     5     6   ar
     6     6     7   ar
     7     7     8   ar
     8     8     9   ar
     9     9    10   ar
    10     5    10   ar
    11    10    11   ar
    12    11    12   ar
    13     4    12   ar
    14    12    13    1
    15    13    14    2
    16    15    17    1
    17    18    20    1
    18    20    21    1
    19    21    22    2
    20    21    23    1
    21    18    24    1
    22    15    25    1
    23    11    26    1
    24    26    27   ar
    25    27    28   ar
    26    28    29   ar
    27    29    30   ar
    28    30    31   ar
    29    26    31   ar
    30    29    32    1
    31    18    19    1
    32    18    17    1
    33    15    16    1
    34    15    14    1
    35     1    33    1
    36     1    34    1
    37     1    35    1
    38     2    36    1
    39     3    37    1
    40     3    38    1
    41     3    39    1
    42     6    40    1
    43     7    41    1
    44     8    42    1
    45     9    43    1
    46    13    44    1
    47    14    45    1
    48    17    46    1
    49    17    47    1
    50    20    48    1
    51    20    49    1
    52    23    50    1
    53    24    51    1
    54    25    52    1
    55    27    53    1
    56    28    54    1
    57    30    55    1
    58    31    56    1
