@<TRIPOS>MOLECULE
*****
 29 30 0 0 0
SMALL
GASTEIGER

@<TRIPOS>ATOM
      1 C           0.9239    0.0143   -0.1201 C.3     1  UNL1       -0.0567
      2 C           2.4402   -0.0203   -0.0736 C.3     1  UNL1       -0.0007
      3 C           3.0960    1.1985   -0.7845 C.3     1  UNL1       -0.0445
      4 C           4.5330    1.1848   -0.2342 C.3     1  UNL1       -0.0490
      5 C           4.5203   -0.0197    0.7336 C.3     1  UNL1       -0.0329
      6 H           5.3437   -0.0047    1.4516 H       1  UNL1        0.0307
      7 C           3.0960    0.0231    1.3434 C.3     1  UNL1       -0.0242
      8 C           2.7792   -1.1595    2.2793 C.3     1  UNL1       -0.0590
      9 C           2.8000    1.2968    2.1640 C.3     1  UNL1       -0.0590
     10 C           4.4994   -1.2953   -0.1431 C.3     1  UNL1       -0.0230
     11 C           3.0792   -1.2758   -0.7417 C.3     1  UNL1        0.0614
     12 H           3.1082   -1.1833   -1.8332 H       1  UNL1        0.0599
     13 O           2.3757   -2.4691   -0.4400 O.3     1  UNL1       -0.3912
     14 H           0.5336    0.9386    0.3183 H       1  UNL1        0.0236
     15 H           0.4823   -0.8237    0.4282 H       1  UNL1        0.0236
     16 H           0.5668   -0.0376   -1.1543 H       1  UNL1        0.0236
     17 H           2.5939    2.1413   -0.5414 H       1  UNL1        0.0272
     18 H           3.0835    1.1027   -1.8759 H       1  UNL1        0.0272
     19 H           4.7576    2.1191    0.2910 H       1  UNL1        0.0268
     20 H           5.2728    1.0728   -1.0338 H       1  UNL1        0.0268
     21 H           3.0008   -2.1443    1.8669 H       1  UNL1        0.0235
     22 H           1.7197   -1.1595    2.5586 H       1  UNL1        0.0235
     23 H           3.3646   -1.0794    3.2032 H       1  UNL1        0.0235
     24 H           2.9476    2.2334    1.6227 H       1  UNL1        0.0235
     25 H           3.4482    1.3398    3.0472 H       1  UNL1        0.0235
     26 H           1.7613    1.2975    2.5139 H       1  UNL1        0.0235
     27 H           4.6880   -2.1963    0.4498 H       1  UNL1        0.0293
     28 H           5.2624   -1.2542   -0.9281 H       1  UNL1        0.0293
     29 H           2.8805   -3.2087   -0.8191 H       1  UNL1        0.2098
@<TRIPOS>BOND
     1     1     2    1
     2     2     3    1
     3     3     4    1
     4     4     5    1
     5     5     6    1
     6     5     7    1
     7     2     7    1
     8     7     8    1
     9     7     9    1
    10     5    10    1
    11    10    11    1
    12    11    12    1
    13     2    11    1
    14    11    13    1
    15     1    14    1
    16     1    15    1
    17     1    16    1
    18     3    17    1
    19     3    18    1
    20     4    19    1
    21     4    20    1
    22     8    21    1
    23     8    22    1
    24     8    23    1
    25     9    24    1
    26     9    25    1
    27     9    26    1
    28    10    27    1
    29    10    28    1
    30    13    29    1
