@<TRIPOS>MOLECULE
*****
 49 53 0 0 0
SMALL
GASTEIGER

@<TRIPOS>ATOM
      1 C           0.8922   -0.3465    0.3175 C.3     1  UNL1       -0.0632
      2 C           2.3842   -0.1806    0.0737 C.3     1  UNL1       -0.0303
      3 C           2.9285   -1.1309   -1.0127 C.3     1  UNL1        0.0803
      4 H           2.6963   -2.1510   -0.7097 H       1  UNL1        0.0579
      5 C           2.3744   -0.7587   -2.4277 C.ar    1  UNL1        0.1378
      6 N           2.4504    0.4970   -2.7586 N.ar    1  UNL1       -0.2311
      7 C           2.1286    0.8784   -4.0610 C.ar    1  UNL1        0.0810
      8 C           1.7999   -0.0432   -5.0490 C.ar    1  UNL1        0.1003
      9 C           1.5222    0.3966   -6.3443 C.ar    1  UNL1        0.1378
     10 C           1.5715    1.7530   -6.6604 C.ar    1  UNL1       -0.0256
     11 C           1.8998    2.6806   -5.6762 C.ar    1  UNL1       -0.0570
     12 C           2.1787    2.2403   -4.3815 C.ar    1  UNL1       -0.0353
     13 F           1.1960   -0.4583   -7.3232 F       1  UNL1       -0.2046
     14 C           1.7303   -1.4627   -4.6646 C.ar    1  UNL1        0.2691
     15 O           1.4298   -2.2960   -5.5161 O.2     1  UNL1       -0.2665
     16 N           1.9718   -1.7533   -3.3114 N.ar    1  UNL1       -0.2628
     17 C           1.7840   -3.1055   -2.8930 C.ar    1  UNL1        0.0512
     18 C           2.4820   -4.1464   -3.5166 C.ar    1  UNL1       -0.0377
     19 C           2.3220   -5.4639   -3.0838 C.ar    1  UNL1       -0.0598
     20 C           1.4404   -5.7564   -2.0454 C.ar    1  UNL1       -0.0616
     21 C           0.7085   -4.7338   -1.4455 C.ar    1  UNL1       -0.0598
     22 C           0.8752   -3.4139   -1.8707 C.ar    1  UNL1       -0.0377
     23 N           4.4068   -0.9564   -1.0242 N.pl3   1  UNL1       -0.3175
     24 C           5.0630   -1.9197   -1.7946 C.ar    1  UNL1        0.1482
     25 N           5.5587   -1.5553   -2.9897 N.ar    1  UNL1       -0.2187
     26 C           6.1937   -2.4881   -3.7335 C.ar    1  UNL1        0.1205
     27 N           6.4081   -3.7769   -3.4397 N.ar    1  UNL1       -0.2144
     28 C           5.9274   -4.1141   -2.2305 C.ar    1  UNL1        0.1825
     29 C           5.2688   -3.2257   -1.4023 C.ar    1  UNL1        0.1253
     30 N           4.9704   -3.9504   -0.2838 N.ar    1  UNL1       -0.3404
     31 C           5.4254   -5.2244   -0.4845 C.ar    1  UNL1        0.0963
     32 N           6.0091   -5.3548   -1.6558 N.ar    1  UNL1       -0.2164
     33 H           0.5605    0.3444    1.0992 H       1  UNL1        0.0230
     34 H           0.6615   -1.3630    0.6504 H       1  UNL1        0.0230
     35 H           0.3116   -0.1344   -0.5852 H       1  UNL1        0.0230
     36 H           2.9116   -0.3723    1.0173 H       1  UNL1        0.0285
     37 H           2.5909    0.8662   -0.1812 H       1  UNL1        0.0285
     38 H           1.3520    2.0734   -7.6749 H       1  UNL1        0.0646
     39 H           1.9434    3.7406   -5.9139 H       1  UNL1        0.0619
     40 H           2.4452    2.9613   -3.6116 H       1  UNL1        0.0639
     41 H           3.1755   -3.9421   -4.3302 H       1  UNL1        0.0638
     42 H           2.8888   -6.2600   -3.5620 H       1  UNL1        0.0618
     43 H           1.3113   -6.7860   -1.7205 H       1  UNL1        0.0618
     44 H          -0.0046   -4.9681   -0.6591 H       1  UNL1        0.0618
     45 H           0.2619   -2.6385   -1.4213 H       1  UNL1        0.0638
     46 H           4.6060   -0.0752   -1.5114 H       1  UNL1        0.1482
     47 H           6.5744   -2.1498   -4.6927 H       1  UNL1        0.1048
     48 H           4.5071   -3.5977    0.5413 H       1  UNL1        0.1669
     49 H           5.3075   -6.0064    0.2541 H       1  UNL1        0.1027
@<TRIPOS>BOND
     1     1     2    1
     2     2     3    1
     3     3     4    1
     4     3     5    1
     5     5     6   ar
     6     6     7   ar
     7     7     8   ar
     8     8     9   ar
     9     9    10   ar
    10    10    11   ar
    11    11    12   ar
    12     7    12   ar
    13     9    13    1
    14     8    14   ar
    15    14    15    2
    16    14    16   ar
    17     5    16   ar
    18    16    17    1
    19    17    18   ar
    20    18    19   ar
    21    19    20   ar
    22    20    21   ar
    23    21    22   ar
    24    17    22   ar
    25     3    23    1
    26    23    24    1
    27    24    25   ar
    28    25    26   ar
    29    26    27   ar
    30    27    28   ar
    31    28    29   ar
    32    24    29   ar
    33    29    30   ar
    34    30    31   ar
    35    31    32   ar
    36    28    32   ar
    37     1    33    1
    38     1    34    1
    39     1    35    1
    40     2    36    1
    41     2    37    1
    42    10    38    1
    43    11    39    1
    44    12    40    1
    45    18    41    1
    46    19    42    1
    47    20    43    1
    48    21    44    1
    49    22    45    1
    50    23    46    1
    51    26    47    1
    52    30    48    1
    53    31    49    1
