@<TRIPOS>MOLECULE
*****
 16 17 0 0 0
SMALL
GASTEIGER

@<TRIPOS>ATOM
      1 C           2.1450   -0.6953   -0.1181 C.ar    1  UNL1       -0.0611
      2 C           2.1543    0.6967   -0.0551 C.ar    1  UNL1       -0.0598
      3 C           0.9628    1.4226    0.0387 C.ar    1  UNL1       -0.0378
      4 C          -0.2353    0.6991    0.0667 C.ar    1  UNL1        0.0465
      5 N          -1.5377    1.1372    0.1531 N.ar    1  UNL1       -0.3606
      6 H          -1.8119    2.1079    0.2113 H       1  UNL1        0.1653
      7 C          -2.3978    0.0710    0.1483 C.ar    1  UNL1        0.0027
      8 C          -1.6440   -1.0769    0.0576 C.ar    1  UNL1       -0.0367
      9 C          -0.2751   -0.6942    0.0053 C.ar    1  UNL1       -0.0004
     10 C           0.9378   -1.4034   -0.0888 C.ar    1  UNL1       -0.0526
     11 H           3.0834   -1.2393   -0.1907 H       1  UNL1        0.0618
     12 H           3.1030    1.2281   -0.0792 H       1  UNL1        0.0618
     13 H           0.9741    2.5063    0.0875 H       1  UNL1        0.0638
     14 H          -3.4672    0.2205    0.2096 H       1  UNL1        0.0807
     15 H          -2.0323   -2.0864    0.0314 H       1  UNL1        0.0638
     16 H           0.9384   -2.4880   -0.1383 H       1  UNL1        0.0624
@<TRIPOS>BOND
     1     1     2   ar
     2     2     3   ar
     3     3     4   ar
     4     4     5   ar
     5     5     6    1
     6     5     7   ar
     7     7     8   ar
     8     8     9   ar
     9     4     9   ar
    10     9    10   ar
    11     1    10   ar
    12     1    11    1
    13     2    12    1
    14     3    13    1
    15     7    14    1
    16     8    15    1
    17    10    16    1
