@<TRIPOS>MOLECULE
*****
 68 72 0 0 0
SMALL
GASTEIGER

@<TRIPOS>ATOM
      1 C          -7.4508    0.8767    1.0023 C.3     1  UNL1       -0.0380
      2 C          -6.0668    0.8575    0.4127 C.ar    1  UNL1       -0.0291
      3 C          -5.4281    2.0422   -0.0034 C.ar    1  UNL1        0.0383
      4 C          -4.1275    1.9420   -0.5340 C.ar    1  UNL1       -0.0190
      5 C          -3.4503    0.7276   -0.6476 C.ar    1  UNL1        0.0354
      6 C          -4.0960   -0.4331   -0.2248 C.ar    1  UNL1       -0.0401
      7 C          -5.3963   -0.3715    0.2855 C.ar    1  UNL1       -0.0553
      8 N          -2.1212    0.6169   -1.1225 N.am    1  UNL1       -0.2814
      9 C          -1.3680    1.6209   -1.7163 C.2     1  UNL1        0.2483
     10 O          -1.7916    2.7182   -2.0657 O.2     1  UNL1       -0.2699
     11 C           0.0827    1.3367   -1.9627 C.ar    1  UNL1        0.0370
     12 C           0.9126    2.4282   -2.2761 C.ar    1  UNL1       -0.0493
     13 C           2.2753    2.2498   -2.5351 C.ar    1  UNL1       -0.0566
     14 C           2.8369    0.9717   -2.4826 C.ar    1  UNL1       -0.0333
     15 C           2.0101   -0.1173   -2.1635 C.ar    1  UNL1       -0.0566
     16 C           0.6461    0.0582   -1.9090 C.ar    1  UNL1       -0.0493
     17 C           4.2977    0.7382   -2.8052 C.3     1  UNL1        0.0241
     18 N           4.9978    0.0912   -1.6971 N.3     1  UNL1       -0.2957
     19 C           5.4350    1.0472   -0.6602 C.3     1  UNL1        0.0120
     20 C           6.5651    0.5201    0.2697 C.3     1  UNL1        0.0114
     21 N           6.5585   -0.9418    0.3823 N.3     1  UNL1       -0.3029
     22 C           6.7150   -1.5652   -0.9460 C.3     1  UNL1        0.0114
     23 C           6.1121   -0.7537   -2.1267 C.3     1  UNL1        0.0120
     24 C           7.5485   -1.4333    1.3296 C.3     1  UNL1       -0.0127
     25 N          -6.0364    3.2945    0.2107 N.pl3   1  UNL1       -0.2833
     26 C          -5.4832    4.5747    0.2255 C.ar    1  UNL1        0.2200
     27 N          -6.3222    5.6024    0.0520 N.ar    1  UNL1       -0.2226
     28 C          -5.7694    6.8295    0.0290 C.ar    1  UNL1        0.0332
     29 C          -4.4220    7.0728    0.1770 C.ar    1  UNL1       -0.0174
     30 C          -3.6239    5.9678    0.3761 C.ar    1  UNL1        0.0775
     31 N          -4.1693    4.7367    0.4296 N.ar    1  UNL1       -0.2142
     32 C          -2.1541    6.0009    0.5356 C.ar    1  UNL1        0.0186
     33 C          -1.3621    7.0933    0.1785 C.ar    1  UNL1        0.0367
     34 N          -0.0092    7.1612    0.2999 N.ar    1  UNL1       -0.2626
     35 C           0.6089    6.0680    0.7907 C.ar    1  UNL1        0.0276
     36 C          -0.0587    4.9199    1.1694 C.ar    1  UNL1       -0.0430
     37 C          -1.4466    4.8943    1.0396 C.ar    1  UNL1       -0.0497
     38 H          -7.4989    1.5700    1.8483 H       1  UNL1        0.0278
     39 H          -7.7431   -0.1107    1.3755 H       1  UNL1        0.0278
     40 H          -8.1792    1.1764    0.2422 H       1  UNL1        0.0278
     41 H          -3.6357    2.8506   -0.8582 H       1  UNL1        0.0655
     42 H          -3.6072   -1.4008   -0.2920 H       1  UNL1        0.0636
     43 H          -5.8794   -1.2936    0.6023 H       1  UNL1        0.0621
     44 H          -1.6982   -0.2872   -0.9892 H       1  UNL1        0.1551
     45 H           0.4947    3.4337   -2.3255 H       1  UNL1        0.0625
     46 H           2.8848    3.1153   -2.7836 H       1  UNL1        0.0621
     47 H           2.4390   -1.1173   -2.1138 H       1  UNL1        0.0621
     48 H           0.0631   -0.8287   -1.6937 H       1  UNL1        0.0625
     49 H           4.7933    1.6693   -3.1089 H       1  UNL1        0.0476
     50 H           4.3079    0.0964   -3.6967 H       1  UNL1        0.0476
     51 H           4.5652    1.3019   -0.0431 H       1  UNL1        0.0439
     52 H           5.7978    1.9801   -1.1116 H       1  UNL1        0.0439
     53 H           6.4408    0.9819    1.2566 H       1  UNL1        0.0439
     54 H           7.5350    0.8555   -0.1233 H       1  UNL1        0.0439
     55 H           6.2209   -2.5439   -0.9069 H       1  UNL1        0.0439
     56 H           7.7726   -1.7461   -1.1773 H       1  UNL1        0.0439
     57 H           5.7792   -1.4693   -2.8885 H       1  UNL1        0.0439
     58 H           6.8965   -0.1348   -2.5820 H       1  UNL1        0.0439
     59 H           7.3733   -1.0097    2.3247 H       1  UNL1        0.0391
     60 H           8.5717   -1.1855    1.0261 H       1  UNL1        0.0391
     61 H           7.4718   -2.5214    1.4327 H       1  UNL1        0.0391
     62 H          -7.0358    3.3449    0.0931 H       1  UNL1        0.1550
     63 H          -6.4689    7.6463   -0.1259 H       1  UNL1        0.0831
     64 H          -4.0418    8.0834    0.1440 H       1  UNL1        0.0654
     65 H          -1.7927    7.9917   -0.2534 H       1  UNL1        0.0836
     66 H           1.6894    6.1388    0.8702 H       1  UNL1        0.0829
     67 H           0.4794    4.0595    1.5502 H       1  UNL1        0.0633
     68 H          -1.9807    3.9883    1.3243 H       1  UNL1        0.0625
@<TRIPOS>BOND
     1     1     2    1
     2     2     3   ar
     3     3     4   ar
     4     4     5   ar
     5     5     6   ar
     6     6     7   ar
     7     2     7   ar
     8     5     8    1
     9     8     9   am
    10     9    10    2
    11     9    11    1
    12    11    12   ar
    13    12    13   ar
    14    13    14   ar
    15    14    15   ar
    16    15    16   ar
    17    11    16   ar
    18    14    17    1
    19    17    18    1
    20    18    19    1
    21    19    20    1
    22    20    21    1
    23    21    22    1
    24    22    23    1
    25    18    23    1
    26    21    24    1
    27     3    25    1
    28    25    26    1
    29    26    27   ar
    30    27    28   ar
    31    28    29   ar
    32    29    30   ar
    33    30    31   ar
    34    26    31   ar
    35    30    32    1
    36    32    33   ar
    37    33    34   ar
    38    34    35   ar
    39    35    36   ar
    40    36    37   ar
    41    32    37   ar
    42     1    38    1
    43     1    39    1
    44     1    40    1
    45     4    41    1
    46     6    42    1
    47     7    43    1
    48     8    44    1
    49    12    45    1
    50    13    46    1
    51    15    47    1
    52    16    48    1
    53    17    49    1
    54    17    50    1
    55    19    51    1
    56    19    52    1
    57    20    53    1
    58    20    54    1
    59    22    55    1
    60    22    56    1
    61    23    57    1
    62    23    58    1
    63    24    59    1
    64    24    60    1
    65    24    61    1
    66    25    62    1
    67    28    63    1
    68    29    64    1
    69    33    65    1
    70    35    66    1
    71    36    67    1
    72    37    68    1
