@<TRIPOS>MOLECULE
*****
 17 18 0 0 0
SMALL
GASTEIGER

@<TRIPOS>ATOM
      1 C          -2.4244    0.0235    0.0062 C.2     1  UNL1       -0.0791
      2 C          -1.6491    1.1200    0.0003 C.2     1  UNL1       -0.0579
      3 C          -0.2642    0.6809    0.0001 C.ar    1  UNL1       -0.0218
      4 C           0.9006    1.4264   -0.0048 C.ar    1  UNL1       -0.0543
      5 C           2.1205    0.7433   -0.0040 C.ar    1  UNL1       -0.0612
      6 C           2.1569   -0.6619    0.0015 C.ar    1  UNL1       -0.0615
      7 C           0.9751   -1.4069    0.0065 C.ar    1  UNL1       -0.0577
      8 C          -0.2265   -0.7196    0.0058 C.ar    1  UNL1       -0.0365
      9 C          -1.6241   -1.2577    0.0106 C.3     1  UNL1       -0.0086
     10 H          -3.5050    0.0396    0.0076 H       1  UNL1        0.0575
     11 H          -1.9676    2.1495   -0.0038 H       1  UNL1        0.0621
     12 H           0.8736    2.5105   -0.0091 H       1  UNL1        0.0624
     13 H           3.0519    1.3044   -0.0078 H       1  UNL1        0.0618
     14 H           3.1168   -1.1732    0.0018 H       1  UNL1        0.0618
     15 H           1.0028   -2.4913    0.0108 H       1  UNL1        0.0621
     16 H          -1.8246   -1.8402    0.9142 H       1  UNL1        0.0356
     17 H          -1.8276   -1.8484   -0.8870 H       1  UNL1        0.0356
@<TRIPOS>BOND
     1     1     2    2
     2     2     3    1
     3     3     4   ar
     4     4     5   ar
     5     5     6   ar
     6     6     7   ar
     7     7     8   ar
     8     3     8   ar
     9     8     9    1
    10     1     9    1
    11     1    10    1
    12     2    11    1
    13     4    12    1
    14     5    13    1
    15     6    14    1
    16     7    15    1
    17     9    16    1
    18     9    17    1
