@<TRIPOS>MOLECULE
*****
 81 84 0 0 0
SMALL
GASTEIGER

@<TRIPOS>ATOM
      1 C           4.2763   -1.1505    0.0713 C.3     1  UNL1       -0.0621
      2 C           2.9820   -0.3360   -0.0748 C.3     1  UNL1       -0.0402
      3 H           2.1664   -1.0406    0.1483 H       1  UNL1        0.0301
      4 C           2.7547    0.1373   -1.5308 C.3     1  UNL1       -0.0467
      5 C           2.8003   -0.9890   -2.5748 C.3     1  UNL1       -0.0343
      6 C           2.7998   -0.4287   -3.9729 C.2     1  UNL1       -0.0853
      7 C           1.9518   -0.6852   -4.9863 C.2     1  UNL1       -0.0796
      8 C           0.7685   -1.6096   -4.9247 C.3     1  UNL1       -0.0440
      9 C           2.1549   -0.0332   -6.3310 C.3     1  UNL1       -0.0440
     10 C           2.8120    0.8243    0.9583 C.3     1  UNL1       -0.0322
     11 H           1.7759    1.1687    0.8126 H       1  UNL1        0.0309
     12 C           2.8293    0.3274    2.4196 C.3     1  UNL1       -0.0486
     13 C           3.8482    1.1909    3.1374 C.3     1  UNL1       -0.0431
     14 C           3.7794    2.5700    2.4375 C.3     1  UNL1       -0.0051
     15 C           3.7378    2.1162    0.9146 C.3     1  UNL1       -0.0196
     16 C           3.0961    3.1692   -0.0318 C.3     1  UNL1       -0.0429
     17 C           2.7535    4.5019    0.6169 C.3     1  UNL1       -0.0304
     18 C           2.0709    4.3640    1.9664 C.2     1  UNL1       -0.0636
     19 C           2.5508    3.4314    2.8210 C.2     1  UNL1       -0.0633
     20 C           2.0387    3.3386    4.2302 C.3     1  UNL1       -0.0306
     21 C           0.6512    3.9214    4.4145 C.3     1  UNL1       -0.0451
     22 C           0.5031    5.3464    3.8459 C.3     1  UNL1       -0.0242
     23 H           1.1672    5.9769    4.4565 H       1  UNL1        0.0315
     24 C           1.0046    5.4334    2.3413 C.3     1  UNL1       -0.0073
     25 C          -0.2007    5.3699    1.3522 C.3     1  UNL1       -0.0413
     26 C          -1.3815    4.5485    1.8547 C.3     1  UNL1       -0.0256
     27 C          -1.9606    5.0537    3.1820 C.3     1  UNL1        0.0607
     28 H          -2.2846    4.1642    3.7363 H       1  UNL1        0.0599
     29 C          -0.9729    5.8779    4.0611 C.3     1  UNL1       -0.0053
     30 C          -1.4102    5.7298    5.5455 C.3     1  UNL1       -0.0572
     31 C          -1.0792    7.3996    3.7897 C.3     1  UNL1       -0.0572
     32 O          -3.1642    5.7828    2.9371 O.3     1  UNL1       -0.3912
     33 C           1.7273    6.8013    2.1553 C.3     1  UNL1       -0.0556
     34 C           5.1643    1.8338    0.3896 C.3     1  UNL1       -0.0585
     35 C           5.0318    3.3748    2.8535 C.3     1  UNL1       -0.0553
     36 H           5.0986   -0.7312   -0.5143 H       1  UNL1        0.0233
     37 H           4.1188   -2.1728   -0.2914 H       1  UNL1        0.0233
     38 H           4.6100   -1.2375    1.1078 H       1  UNL1        0.0233
     39 H           3.4963    0.8956   -1.7978 H       1  UNL1        0.0271
     40 H           1.7754    0.6297   -1.5949 H       1  UNL1        0.0271
     41 H           3.7235   -1.5691   -2.4734 H       1  UNL1        0.0307
     42 H           1.9729   -1.6799   -2.3954 H       1  UNL1        0.0307
     43 H           3.6294    0.2535   -4.1662 H       1  UNL1        0.0571
     44 H           0.6202   -2.0655   -3.9442 H       1  UNL1        0.0274
     45 H           0.8900   -2.4219   -5.6493 H       1  UNL1        0.0274
     46 H          -0.1476   -1.0629   -5.1720 H       1  UNL1        0.0274
     47 H           3.0239    0.6336   -6.3438 H       1  UNL1        0.0274
     48 H           1.2768    0.5619   -6.6015 H       1  UNL1        0.0274
     49 H           2.3118   -0.7951   -7.1016 H       1  UNL1        0.0274
     50 H           3.0558   -0.7362    2.5318 H       1  UNL1        0.0268
     51 H           1.8367    0.4757    2.8634 H       1  UNL1        0.0268
     52 H           4.8412    0.7407    3.0120 H       1  UNL1        0.0274
     53 H           3.6820    1.2192    4.2174 H       1  UNL1        0.0274
     54 H           2.1720    2.7778   -0.4750 H       1  UNL1        0.0274
     55 H           3.7456    3.3698   -0.8940 H       1  UNL1        0.0274
     56 H           2.1345    5.0568   -0.0950 H       1  UNL1        0.0310
     57 H           3.6635    5.1021    0.7388 H       1  UNL1        0.0310
     58 H           2.7460    3.8394    4.9020 H       1  UNL1        0.0310
     59 H           1.9659    2.2984    4.5569 H       1  UNL1        0.0310
     60 H           0.4523    3.9188    5.4918 H       1  UNL1        0.0271
     61 H          -0.0775    3.2379    3.9667 H       1  UNL1        0.0271
     62 H           0.0953    4.9490    0.3853 H       1  UNL1        0.0274
     63 H          -0.5567    6.3783    1.1128 H       1  UNL1        0.0274
     64 H          -1.0488    3.5102    1.9726 H       1  UNL1        0.0290
     65 H          -2.1615    4.5306    1.0836 H       1  UNL1        0.0290
     66 H          -1.5190    4.6836    5.8477 H       1  UNL1        0.0236
     67 H          -2.3843    6.2011    5.7225 H       1  UNL1        0.0236
     68 H          -0.6844    6.2037    6.2163 H       1  UNL1        0.0236
     69 H          -1.0107    7.6542    2.7315 H       1  UNL1        0.0236
     70 H          -0.2972    7.9473    4.3280 H       1  UNL1        0.0236
     71 H          -2.0391    7.8038    4.1339 H       1  UNL1        0.0236
     72 H          -2.9814    6.4454    2.2497 H       1  UNL1        0.2098
     73 H           2.6665    6.8309    2.7216 H       1  UNL1        0.0238
     74 H           1.1305    7.6490    2.4923 H       1  UNL1        0.0238
     75 H           1.9660    7.0018    1.1047 H       1  UNL1        0.0238
     76 H           5.6904    1.0830    0.9848 H       1  UNL1        0.0235
     77 H           5.7727    2.7456    0.3982 H       1  UNL1        0.0235
     78 H           5.1657    1.4984   -0.6496 H       1  UNL1        0.0235
     79 H           5.9536    2.7939    2.7403 H       1  UNL1        0.0238
     80 H           4.9827    3.6658    3.9096 H       1  UNL1        0.0238
     81 H           5.1468    4.2910    2.2663 H       1  UNL1        0.0238
@<TRIPOS>BOND
     1     2     4    1
     2     4     5    1
     3     5     6    1
     4     6     7    2
     5     7     8    1
     6     7     9    1
     7    10    12    1
     8    12    13    1
     9    13    14    1
    10    14    15    1
    11    10    15    1
    12    15    16    1
    13    16    17    1
    14    17    18    1
    15    18    19    2
    16    14    19    1
    17    19    20    1
    18    20    21    1
    19    21    22    1
    20    22    24    1
    21    18    24    1
    22    24    25    1
    23    25    26    1
    24    26    27    1
    25    27    29    1
    26    22    29    1
    27     2    10    1
    28    10    11    1
    29    14    35    1
    30    15    34    1
    31    22    23    1
    32    24    33    1
    33    27    28    1
    34    27    32    1
    35    29    30    1
    36    29    31    1
    37     2     3    1
    38     2     1    1
    39     1    36    1
    40     1    37    1
    41     1    38    1
    42     4    39    1
    43     4    40    1
    44     5    41    1
    45     5    42    1
    46     6    43    1
    47     8    44    1
    48     8    45    1
    49     8    46    1
    50     9    47    1
    51     9    48    1
    52     9    49    1
    53    12    50    1
    54    12    51    1
    55    13    52    1
    56    13    53    1
    57    16    54    1
    58    16    55    1
    59    17    56    1
    60    17    57    1
    61    20    58    1
    62    20    59    1
    63    21    60    1
    64    21    61    1
    65    25    62    1
    66    25    63    1
    67    26    64    1
    68    26    65    1
    69    30    66    1
    70    30    67    1
    71    30    68    1
    72    31    69    1
    73    31    70    1
    74    31    71    1
    75    32    72    1
    76    33    73    1
    77    33    74    1
    78    33    75    1
    79    34    76    1
    80    34    77    1
    81    34    78    1
    82    35    79    1
    83    35    80    1
    84    35    81    1
