@<TRIPOS>MOLECULE
*****
 66 70 0 0 0
SMALL
GASTEIGER

@<TRIPOS>ATOM
      1 C           1.1311    0.4184    0.0355 C.3     1  UNL1        0.0545
      2 S           2.8432    0.0823   -0.2945 S.O2    1  UNL1       -0.0326
      3 O           2.8931   -0.9698   -1.2921 O.2     1  UNL1       -0.1746
      4 O           3.5070    1.3515   -0.5175 O.2     1  UNL1       -0.1746
      5 C           3.4269   -0.5907    1.2521 C.3     1  UNL1        0.0779
      6 C           4.8602   -1.0804    1.1022 C.3     1  UNL1        0.0157
      7 N           5.3556   -1.6333    2.3704 N.3     1  UNL1       -0.3078
      8 C           6.7335   -2.1146    2.2084 C.3     1  UNL1        0.0546
      9 C           7.2239   -2.7240    3.4734 C.ar    1  UNL1        0.1195
     10 C           7.8086   -2.2087    4.6093 C.ar    1  UNL1       -0.0188
     11 C           8.0769   -3.3129    5.4559 C.ar    1  UNL1       -0.0156
     12 C           7.6395   -4.4436    4.7924 C.ar    1  UNL1        0.1353
     13 O           7.1100   -4.0785    3.5844 O.2     1  UNL1       -0.4584
     14 C           7.6442   -5.8750    5.0883 C.ar    1  UNL1        0.0181
     15 C           8.1944   -6.3674    6.2803 C.ar    1  UNL1       -0.0386
     16 C           8.2439   -7.7629    6.5643 C.ar    1  UNL1        0.0411
     17 C           7.7042   -8.6669    5.6388 C.ar    1  UNL1        0.0760
     18 C           7.1484   -8.1720    4.4698 C.ar    1  UNL1       -0.0349
     19 C           7.1177   -6.8023    4.1871 C.ar    1  UNL1       -0.0490
     20 N           7.7016   -9.9880    5.8250 N.ar    1  UNL1       -0.2353
     21 C           8.2477  -10.4329    6.9584 C.ar    1  UNL1        0.1187
     22 N           8.7966   -9.6812    7.9148 N.ar    1  UNL1       -0.2200
     23 C           8.8017   -8.3490    7.7220 C.ar    1  UNL1        0.1339
     24 N           9.3911   -7.5070    8.7095 N.pl3   1  UNL1       -0.2988
     25 C           9.8493   -7.8637   10.0007 C.ar    1  UNL1        0.0340
     26 C          10.8027   -7.0555   10.6363 C.ar    1  UNL1       -0.0186
     27 C          11.2705   -7.3654   11.9206 C.ar    1  UNL1        0.0843
     28 C          10.7877   -8.4870   12.6032 C.ar    1  UNL1        0.1393
     29 C           9.7721   -9.2414   12.0160 C.ar    1  UNL1       -0.0167
     30 C           9.3032   -8.9213   10.7361 C.ar    1  UNL1       -0.0370
     31 O          11.3010   -8.7646   13.8447 O.3     1  UNL1       -0.4859
     32 C          11.4379  -10.1595   14.1337 C.3     1  UNL1        0.1148
     33 C          12.3732  -10.4104   15.2977 C.ar    1  UNL1       -0.0077
     34 C          13.1073   -9.3886   15.9143 C.ar    1  UNL1       -0.0201
     35 C          13.9582   -9.6854   16.9758 C.ar    1  UNL1        0.1238
     36 C          14.1025  -10.9872   17.4410 C.ar    1  UNL1       -0.0264
     37 C          13.3848  -12.0143   16.8343 C.ar    1  UNL1       -0.0587
     38 C          12.5269  -11.7274   15.7691 C.ar    1  UNL1       -0.0552
     39 F          14.6522   -8.6996   17.5602 F       1  UNL1       -0.2055
     40 CL         12.4742   -6.3393   12.6190 Cl      1  UNL1       -0.0797
     41 H           0.6890    0.8468   -0.8665 H       1  UNL1        0.0464
     42 H           1.0616    1.1287    0.8609 H       1  UNL1        0.0464
     43 H           0.6308   -0.5190    0.2859 H       1  UNL1        0.0464
     44 H           3.3496    0.2013    2.0042 H       1  UNL1        0.0512
     45 H           2.7573   -1.4132    1.5232 H       1  UNL1        0.0512
     46 H           5.4994   -0.2467    0.7875 H       1  UNL1        0.0440
     47 H           4.9081   -1.8462    0.3186 H       1  UNL1        0.0440
     48 H           4.7851   -2.4324    2.6511 H       1  UNL1        0.1224
     49 H           7.3933   -1.2832    1.9341 H       1  UNL1        0.0504
     50 H           6.7855   -2.8602    1.4054 H       1  UNL1        0.0504
     51 H           8.0192   -1.1648    4.7958 H       1  UNL1        0.0652
     52 H           8.5425   -3.2796    6.4302 H       1  UNL1        0.0655
     53 H           8.5905   -5.6652    7.0098 H       1  UNL1        0.0632
     54 H           6.7290   -8.8706    3.7484 H       1  UNL1        0.0639
     55 H           6.6765   -6.4749    3.2476 H       1  UNL1        0.0625
     56 H           8.2472  -11.5058    7.1167 H       1  UNL1        0.1048
     57 H          10.0486   -6.8842    8.2502 H       1  UNL1        0.1536
     58 H          11.2015   -6.1811   10.1289 H       1  UNL1        0.0652
     59 H           9.3106  -10.0761   12.5340 H       1  UNL1        0.0655
     60 H           8.4977   -9.5228   10.3222 H       1  UNL1        0.0637
     61 H          11.8409  -10.6909   13.2613 H       1  UNL1        0.0748
     62 H          10.4546  -10.5638   14.4021 H       1  UNL1        0.0748
     63 H          13.0292   -8.3570   15.5821 H       1  UNL1        0.0650
     64 H          14.7729  -11.1909   18.2696 H       1  UNL1        0.0646
     65 H          13.4923  -13.0367   17.1876 H       1  UNL1        0.0619
     66 H          11.9750  -12.5424   15.3037 H       1  UNL1        0.0621
@<TRIPOS>BOND
     1     1     2    1
     2     2     3    2
     3     2     4    2
     4     2     5    1
     5     5     6    1
     6     6     7    1
     7     7     8    1
     8     8     9    1
     9     9    10   ar
    10    10    11   ar
    11    11    12   ar
    12    12    13   ar
    13     9    13   ar
    14    12    14    1
    15    14    15   ar
    16    15    16   ar
    17    16    17   ar
    18    17    18   ar
    19    18    19   ar
    20    14    19   ar
    21    17    20   ar
    22    20    21   ar
    23    21    22   ar
    24    22    23   ar
    25    16    23   ar
    26    23    24    1
    27    24    25    1
    28    25    26   ar
    29    26    27   ar
    30    27    28   ar
    31    28    29   ar
    32    29    30   ar
    33    25    30   ar
    34    28    31    1
    35    31    32    1
    36    32    33    1
    37    33    34   ar
    38    34    35   ar
    39    35    36   ar
    40    36    37   ar
    41    37    38   ar
    42    33    38   ar
    43    35    39    1
    44    27    40    1
    45     1    41    1
    46     1    42    1
    47     1    43    1
    48     5    44    1
    49     5    45    1
    50     6    46    1
    51     6    47    1
    52     7    48    1
    53     8    49    1
    54     8    50    1
    55    10    51    1
    56    11    52    1
    57    15    53    1
    58    18    54    1
    59    19    55    1
    60    21    56    1
    61    24    57    1
    62    26    58    1
    63    29    59    1
    64    30    60    1
    65    32    61    1
    66    32    62    1
    67    34    63    1
    68    36    64    1
    69    37    65    1
    70    38    66    1
