@<TRIPOS>MOLECULE
*****
 49 52 0 0 0
SMALL
GASTEIGER

@<TRIPOS>ATOM
      1 C           1.1081    0.1580   -0.1837 C.3     1  UNL1        0.0788
      2 O           2.5044   -0.0405    0.0443 O.3     1  UNL1       -0.4943
      3 C           2.9216    0.6851    1.1282 C.ar    1  UNL1        0.1342
      4 C           3.2695    2.0266    0.9385 C.ar    1  UNL1        0.0069
      5 C           3.8019    2.7954    1.9650 C.ar    1  UNL1        0.0780
      6 N           4.1300    4.0718    1.7122 N.ar    1  UNL1       -0.2546
      7 C           4.6875    4.7986    2.7030 C.ar    1  UNL1        0.0318
      8 C           4.9309    4.3149    3.9727 C.ar    1  UNL1       -0.0006
      9 C           4.5565    3.0043    4.2504 C.ar    1  UNL1        0.1390
     10 C           3.9959    2.2015    3.2296 C.ar    1  UNL1        0.0436
     11 C           3.6494    0.8427    3.4167 C.ar    1  UNL1       -0.0334
     12 C           3.1321    0.0795    2.3647 C.ar    1  UNL1        0.0788
     13 C           2.8035   -1.3468    2.5957 C.2     1  UNL1        0.2451
     14 O           1.7514   -1.8484    2.2269 O.2     1  UNL1       -0.2703
     15 N           3.7473   -2.0781    3.2648 N.am    1  UNL1       -0.3252
     16 O           4.7535    2.3753    5.4646 O.3     1  UNL1       -0.4553
     17 C           5.1206    3.0876    6.5759 C.ar    1  UNL1        0.1300
     18 C           4.3366    4.1042    7.1172 C.ar    1  UNL1        0.0008
     19 C           4.7376    4.7168    8.3089 C.ar    1  UNL1        0.0656
     20 C           5.8882    4.2853    8.9967 C.ar    1  UNL1        0.0534
     21 C           6.6517    3.2545    8.4414 C.ar    1  UNL1       -0.0355
     22 C           6.2661    2.6552    7.2405 C.ar    1  UNL1       -0.0175
     23 N           6.2442    4.9154   10.2131 N.am    1  UNL1       -0.2681
     24 C           7.0757    4.3990   11.1865 C.2     1  UNL1        0.3041
     25 O           7.5361    3.2641   11.2087 O.2     1  UNL1       -0.2525
     26 N           7.3143    5.3289   12.1821 N.am    1  UNL1       -0.2963
     27 C           8.1069    5.0199   13.3315 C.3     1  UNL1        0.0247
     28 C           9.5753    4.7159   13.2173 C.3     1  UNL1       -0.0328
     29 C           9.1255    5.9994   13.8486 C.3     1  UNL1       -0.0328
     30 CL          3.7602    6.0025    8.9336 Cl      1  UNL1       -0.0815
     31 H           0.7776   -0.5930   -0.9075 H       1  UNL1        0.0660
     32 H           0.9278    1.1485   -0.6143 H       1  UNL1        0.0660
     33 H           0.5188    0.0318    0.7313 H       1  UNL1        0.0660
     34 H           3.1459    2.4778   -0.0433 H       1  UNL1        0.0676
     35 H           4.9504    5.8181    2.4328 H       1  UNL1        0.0831
     36 H           5.4099    4.9581    4.6998 H       1  UNL1        0.0670
     37 H           3.7811    0.3794    4.3928 H       1  UNL1        0.0634
     38 H           4.6903   -1.7442    3.4074 H       1  UNL1        0.1453
     39 H           3.5789   -3.0732    3.3397 H       1  UNL1        0.1453
     40 H           3.4173    4.4088    6.6252 H       1  UNL1        0.0669
     41 H           7.5573    2.8951    8.9231 H       1  UNL1        0.0638
     42 H           6.8587    1.8390    6.8340 H       1  UNL1        0.0655
     43 H           5.6335    5.6654   10.5112 H       1  UNL1        0.1564
     44 H           7.1891    6.3019   11.9418 H       1  UNL1        0.1505
     45 H           7.5527    4.4477   14.0723 H       1  UNL1        0.0499
     46 H          10.0296    4.7506   12.2341 H       1  UNL1        0.0284
     47 H           9.9717    3.9350   13.8565 H       1  UNL1        0.0284
     48 H           9.3054    6.9145   13.2978 H       1  UNL1        0.0284
     49 H           9.2333    6.0979   14.9227 H       1  UNL1        0.0284
@<TRIPOS>BOND
     1     1     2    1
     2     2     3    1
     3     3     4   ar
     4     4     5   ar
     5     5     6   ar
     6     6     7   ar
     7     7     8   ar
     8     8     9   ar
     9     9    10   ar
    10     5    10   ar
    11    10    11   ar
    12    11    12   ar
    13     3    12   ar
    14    12    13    1
    15    13    14    2
    16    13    15   am
    17     9    16    1
    18    16    17    1
    19    17    18   ar
    20    18    19   ar
    21    19    20   ar
    22    20    21   ar
    23    21    22   ar
    24    17    22   ar
    25    20    23    1
    26    23    24   am
    27    24    25    2
    28    24    26   am
    29    26    27    1
    30    27    28    1
    31    28    29    1
    32    27    29    1
    33    19    30    1
    34     1    31    1
    35     1    32    1
    36     1    33    1
    37     4    34    1
    38     7    35    1
    39     8    36    1
    40    11    37    1
    41    15    38    1
    42    15    39    1
    43    18    40    1
    44    21    41    1
    45    22    42    1
    46    23    43    1
    47    26    44    1
    48    27    45    1
    49    28    46    1
    50    28    47    1
    51    29    48    1
    52    29    49    1
