@<TRIPOS>MOLECULE
*****
 31 33 0 0 0
SMALL
GASTEIGER

@<TRIPOS>ATOM
      1 O           0.8934   -0.0040    0.1127 O.2     1  UNL1       -0.2869
      2 C           2.1158   -0.0010    0.0781 C.ar    1  UNL1        0.1966
      3 C           2.8287   -1.2913    0.0128 C.ar    1  UNL1        0.0288
      4 C           4.1686   -1.3290    0.0233 C.ar    1  UNL1        0.1393
      5 C           4.9495   -2.5960   -0.0451 C.ar    1  UNL1        0.0211
      6 C           6.3333   -2.5578   -0.3256 C.ar    1  UNL1       -0.0474
      7 C           7.1062   -3.7249   -0.3984 C.ar    1  UNL1       -0.0159
      8 C           6.4960   -4.9514   -0.1922 C.ar    1  UNL1        0.1583
      9 O           7.1884   -6.1275   -0.2548 O.3     1  UNL1       -0.5033
     10 C           5.1371   -5.0120    0.0904 C.ar    1  UNL1        0.1589
     11 O           4.5377   -6.2231    0.2927 O.3     1  UNL1       -0.5033
     12 C           4.3665   -3.8561    0.1722 C.ar    1  UNL1       -0.0059
     13 O           4.9519   -0.1849    0.0834 O.2     1  UNL1       -0.4544
     14 C           4.3413    1.0449    0.0880 C.ar    1  UNL1        0.1462
     15 C           5.1992    2.1491    0.0883 C.ar    1  UNL1        0.0231
     16 C           4.6590    3.4288    0.0897 C.ar    1  UNL1        0.1239
     17 O           5.4525    4.5371    0.0829 O.3     1  UNL1       -0.5065
     18 C           3.2822    3.6220    0.0958 C.ar    1  UNL1        0.0223
     19 C           2.4290    2.5157    0.0968 C.ar    1  UNL1        0.1347
     20 O           1.0805    2.7283    0.0981 O.3     1  UNL1       -0.5058
     21 C           2.9549    1.2166    0.0906 C.ar    1  UNL1        0.1055
     22 H           2.1878   -2.1604   -0.0467 H       1  UNL1        0.0693
     23 H           6.8344   -1.6069   -0.4980 H       1  UNL1        0.0626
     24 H           8.1663   -3.6480   -0.6167 H       1  UNL1        0.0655
     25 H           8.1179   -5.9232   -0.4557 H       1  UNL1        0.2923
     26 H           5.2568   -6.8763    0.1801 H       1  UNL1        0.2923
     27 H           3.3142   -3.9713    0.4124 H       1  UNL1        0.0662
     28 H           6.2731    1.9913    0.0846 H       1  UNL1        0.0691
     29 H           6.3851    4.2634    0.0724 H       1  UNL1        0.2921
     30 H           2.8922    4.6355    0.0966 H       1  UNL1        0.0691
     31 H           0.8881    3.6791    0.1192 H       1  UNL1        0.2922
@<TRIPOS>BOND
     1     1     2    2
     2     2     3   ar
     3     3     4   ar
     4     4     5    1
     5     5     6   ar
     6     6     7   ar
     7     7     8   ar
     8     8     9    1
     9     8    10   ar
    10    10    11    1
    11    10    12   ar
    12     5    12   ar
    13     4    13   ar
    14    13    14   ar
    15    14    15   ar
    16    15    16   ar
    17    16    17    1
    18    16    18   ar
    19    18    19   ar
    20    19    20    1
    21    19    21   ar
    22     2    21   ar
    23    14    21   ar
    24     3    22    1
    25     6    23    1
    26     7    24    1
    27     9    25    1
    28    11    26    1
    29    12    27    1
    30    15    28    1
    31    17    29    1
    32    18    30    1
    33    20    31    1
