@<TRIPOS>MOLECULE
*****
 65 67 0 0 0
SMALL
GASTEIGER

@<TRIPOS>ATOM
      1 C           9.4829   -1.0236   -6.1345 C.3     1  UNL1       -0.0645
      2 C           9.5335   -1.3616   -4.6511 C.3     1  UNL1       -0.0432
      3 C           9.4103   -2.8487   -4.2757 C.3     1  UNL1        0.0534
      4 H          10.1438   -3.0096   -3.4698 H       1  UNL1        0.0410
      5 C           9.8007   -3.8528   -5.3543 C.3     1  UNL1       -0.0523
      6 C           8.0866   -3.1909   -3.6018 C.2     1  UNL1        0.3102
      7 O           7.9560   -3.1783   -2.3818 O.2     1  UNL1       -0.2505
      8 O           7.0980   -3.6341   -4.4135 O.3     1  UNL1       -0.4605
      9 C           6.3043   -2.6711   -5.1388 C.3     1  UNL1        0.1106
     10 H           6.7955   -1.6943   -5.1218 H       1  UNL1        0.0740
     11 C           6.2140   -3.1254   -6.6046 C.3     1  UNL1       -0.0090
     12 C           5.4773   -4.4615   -6.7882 C.3     1  UNL1       -0.0218
     13 H           5.1219   -4.4922   -7.8267 H       1  UNL1        0.0342
     14 C           4.2774   -4.5748   -5.8910 C.2     1  UNL1       -0.0775
     15 C           3.9857   -3.7203   -4.8933 C.2     1  UNL1       -0.0444
     16 C           4.8640   -2.5133   -4.5484 C.3     1  UNL1        0.0243
     17 H           4.4133   -1.6571   -5.0730 H       1  UNL1        0.0388
     18 C           4.8109   -2.1927   -3.0195 C.3     1  UNL1       -0.0247
     19 H           5.2448   -3.0627   -2.5042 H       1  UNL1        0.0313
     20 C           3.3345   -2.0750   -2.5184 C.3     1  UNL1       -0.0219
     21 H           3.3459   -2.1785   -1.4257 H       1  UNL1        0.0343
     22 C           2.4750   -3.1929   -3.0413 C.2     1  UNL1       -0.0806
     23 C           2.7887   -3.9375   -4.1067 C.2     1  UNL1       -0.0621
     24 C           2.6477   -0.7438   -2.8483 C.3     1  UNL1       -0.0587
     25 C           5.6528   -0.9521   -2.6210 C.3     1  UNL1       -0.0457
     26 C           5.8847   -0.8707   -1.1026 C.3     1  UNL1       -0.0153
     27 C           6.8176    0.2668   -0.6550 C.3     1  UNL1        0.1054
     28 H           7.1525    0.0215    0.3606 H       1  UNL1        0.0734
     29 C           6.1191    1.6144   -0.6499 C.3     1  UNL1        0.0109
     30 C           7.1177    2.6778   -0.2385 C.3     1  UNL1        0.0686
     31 H           6.6290    3.6576   -0.2810 H       1  UNL1        0.0600
     32 C           8.3201    2.6921   -1.1594 C.3     1  UNL1        0.0710
     33 C           8.8067    1.3436   -1.6189 C.2     1  UNL1        0.3098
     34 O           9.8891    1.2332   -2.1893 O.2     1  UNL1       -0.2507
     35 O           7.9928    0.2772   -1.4877 O.3     1  UNL1       -0.4612
     36 O           7.5013    2.5046    1.1251 O.3     1  UNL1       -0.3911
     37 C           6.3907   -5.6761   -6.5963 C.3     1  UNL1       -0.0588
     38 H           9.5545    0.0608   -6.2708 H       1  UNL1        0.0230
     39 H           8.5515   -1.3515   -6.5981 H       1  UNL1        0.0230
     40 H          10.3195   -1.4760   -6.6757 H       1  UNL1        0.0230
     41 H           8.7719   -0.7726   -4.1289 H       1  UNL1        0.0270
     42 H          10.4981   -0.9959   -4.2747 H       1  UNL1        0.0270
     43 H           9.7121   -4.8779   -4.9779 H       1  UNL1        0.0238
     44 H          10.8395   -3.7006   -5.6657 H       1  UNL1        0.0238
     45 H           9.1683   -3.7796   -6.2409 H       1  UNL1        0.0238
     46 H           7.2105   -3.2011   -7.0488 H       1  UNL1        0.0307
     47 H           5.6825   -2.3501   -7.1731 H       1  UNL1        0.0307
     48 H           3.6227   -5.4218   -6.0912 H       1  UNL1        0.0578
     49 H           1.5517   -3.4019   -2.5057 H       1  UNL1        0.0575
     50 H           2.1173   -4.7418   -4.3999 H       1  UNL1        0.0617
     51 H           3.1009    0.0862   -2.2977 H       1  UNL1        0.0235
     52 H           1.5888   -0.7645   -2.5645 H       1  UNL1        0.0235
     53 H           2.6983   -0.5129   -3.9176 H       1  UNL1        0.0235
     54 H           5.1925   -0.0319   -2.9933 H       1  UNL1        0.0269
     55 H           6.6277   -0.9958   -3.1054 H       1  UNL1        0.0269
     56 H           4.9338   -0.7900   -0.5653 H       1  UNL1        0.0301
     57 H           6.3417   -1.8161   -0.7847 H       1  UNL1        0.0301
     58 H           5.2754    1.5917    0.0494 H       1  UNL1        0.0326
     59 H           5.7319    1.8539   -1.6468 H       1  UNL1        0.0326
     60 H           9.1585    3.1975   -0.6668 H       1  UNL1        0.0403
     61 H           8.0618    3.2444   -2.0709 H       1  UNL1        0.0403
     62 H           8.2262    1.8584    1.1906 H       1  UNL1        0.2098
     63 H           7.2875   -5.5944   -7.2191 H       1  UNL1        0.0235
     64 H           5.8718   -6.5972   -6.8867 H       1  UNL1        0.0235
     65 H           6.7085   -5.8017   -5.5567 H       1  UNL1        0.0235
@<TRIPOS>BOND
     1     1     2    1
     2     3     5    1
     3     3     6    1
     4     6     7    2
     5     6     8    1
     6     9    11    1
     7    11    12    1
     8    12    13    1
     9    12    14    1
    10    14    15    2
    11    15    16    1
    12    16    17    1
    13     9    16    1
    14    16    18    1
    15    18    19    1
    16    18    20    1
    17    20    21    1
    18    20    22    1
    19    22    23    2
    20    15    23    1
    21    20    24    1
    22    18    25    1
    23    25    26    1
    24    27    29    1
    25    29    30    1
    26    30    32    1
    27    32    33    1
    28    33    34    2
    29    33    35    1
    30    27    35    1
    31    12    37    1
    32    27    28    1
    33    27    26    1
    34    30    36    1
    35    30    31    1
    36     9    10    1
    37     9     8    1
    38     3     4    1
    39     3     2    1
    40     1    38    1
    41     1    39    1
    42     1    40    1
    43     2    41    1
    44     2    42    1
    45     5    43    1
    46     5    44    1
    47     5    45    1
    48    11    46    1
    49    11    47    1
    50    14    48    1
    51    22    49    1
    52    23    50    1
    53    24    51    1
    54    24    52    1
    55    24    53    1
    56    25    54    1
    57    25    55    1
    58    26    56    1
    59    26    57    1
    60    29    58    1
    61    29    59    1
    62    32    60    1
    63    32    61    1
    64    36    62    1
    65    37    63    1
    66    37    64    1
    67    37    65    1
