@<TRIPOS>MOLECULE
*****
 33 34 0 0 0
SMALL
GASTEIGER

@<TRIPOS>ATOM
      1 C           1.0806    0.6293    1.3809 C.3     1  UNL1       -0.0394
      2 C           2.4488    0.3484    0.8145 C.ar    1  UNL1       -0.0458
      3 C           3.1878    1.4307    0.3113 C.ar    1  UNL1       -0.0585
      4 C           4.4590    1.2389   -0.2130 C.ar    1  UNL1       -0.0597
      5 C           4.9908   -0.0440   -0.2692 C.ar    1  UNL1       -0.0403
      6 C           4.2593   -1.1584    0.1808 C.ar    1  UNL1        0.0345
      7 N           4.9338   -2.4134    0.0854 N.pl3   1  UNL1       -0.3136
      8 C           4.3645   -3.6891   -0.1845 C.ar    1  UNL1        0.0454
      9 C           4.8051   -4.7787    0.5940 C.ar    1  UNL1       -0.0397
     10 C           4.2856   -6.0629    0.4113 C.ar    1  UNL1       -0.0600
     11 C           3.3237   -6.2912   -0.5649 C.ar    1  UNL1       -0.0609
     12 C           2.9022   -5.2393   -1.3754 C.ar    1  UNL1       -0.0460
     13 C           3.4324   -3.9464   -1.2111 C.ar    1  UNL1        0.0799
     14 C           2.9817   -2.9448   -2.2128 C.2     1  UNL1        0.3386
     15 O           1.8605   -2.9504   -2.6948 O.2     1  UNL1       -0.2451
     16 O           3.9767   -2.1533   -2.6651 O.3     1  UNL1       -0.4771
     17 C           3.0087   -0.9560    0.8087 C.ar    1  UNL1       -0.0264
     18 C           2.2464   -2.0896    1.4482 C.3     1  UNL1       -0.0377
     19 H           0.7253    1.6250    1.0936 H       1  UNL1        0.0278
     20 H           1.1074    0.5831    2.4739 H       1  UNL1        0.0278
     21 H           0.3490   -0.0894    0.9979 H       1  UNL1        0.0278
     22 H           2.7726    2.4364    0.3294 H       1  UNL1        0.0620
     23 H           5.0269    2.0839   -0.5922 H       1  UNL1        0.0618
     24 H           5.9806   -0.1803   -0.6993 H       1  UNL1        0.0636
     25 H           5.5422   -2.4667    0.9057 H       1  UNL1        0.1522
     26 H           5.5499   -4.6343    1.3741 H       1  UNL1        0.0636
     27 H           4.6312   -6.8833    1.0361 H       1  UNL1        0.0618
     28 H           2.9130   -7.2877   -0.7086 H       1  UNL1        0.0618
     29 H           2.1692   -5.4311   -2.1586 H       1  UNL1        0.0626
     30 H           4.7627   -2.1895   -2.0824 H       1  UNL1        0.2954
     31 H           2.9220   -2.8088    1.9191 H       1  UNL1        0.0278
     32 H           1.6191   -2.5937    0.7079 H       1  UNL1        0.0278
     33 H           1.6037   -1.7392    2.2617 H       1  UNL1        0.0278
@<TRIPOS>BOND
     1     1     2    1
     2     2     3   ar
     3     3     4   ar
     4     4     5   ar
     5     5     6   ar
     6     6     7    1
     7     7     8    1
     8     8     9   ar
     9     9    10   ar
    10    10    11   ar
    11    11    12   ar
    12    12    13   ar
    13     8    13   ar
    14    13    14    1
    15    14    15    2
    16    14    16    1
    17     6    17   ar
    18     2    17   ar
    19    17    18    1
    20     1    19    1
    21     1    20    1
    22     1    21    1
    23     3    22    1
    24     4    23    1
    25     5    24    1
    26     7    25    1
    27     9    26    1
    28    10    27    1
    29    11    28    1
    30    12    29    1
    31    16    30    1
    32    18    31    1
    33    18    32    1
    34    18    33    1
