@<TRIPOS>MOLECULE
*****
 49 49 0 0 0
SMALL
GASTEIGER

@<TRIPOS>ATOM
      1 C           1.1873    0.0201   -0.1027 C.3     1  UNL1       -0.0653
      2 C           2.1021    0.3226   -1.2792 C.3     1  UNL1       -0.0559
      3 C           3.3302    1.1197   -0.8412 C.3     1  UNL1       -0.0533
      4 C           4.2611    1.4088   -2.0208 C.3     1  UNL1       -0.0531
      5 C           5.4945    2.1926   -1.5696 C.3     1  UNL1       -0.0531
      6 C           6.4573    2.4514   -2.7307 C.3     1  UNL1       -0.0531
      7 C           7.7015    3.2008   -2.2511 C.3     1  UNL1       -0.0531
      8 C           8.7109    3.4156   -3.3812 C.3     1  UNL1       -0.0531
      9 C           9.9694    4.1111   -2.8586 C.3     1  UNL1       -0.0529
     10 C          11.0299    4.2779   -3.9496 C.3     1  UNL1       -0.0473
     11 C          12.3003    4.9095   -3.3742 C.3     1  UNL1        0.0070
     12 C          13.4303    5.0032   -4.3938 C.3     1  UNL1        0.1520
     13 N          13.1416    5.9468   -5.4779 N.ar    1  UNL1       -0.1876
     14 C          13.1037    7.3289   -5.3684 C.ar    1  UNL1        0.1888
     15 C          12.8564    7.8181   -6.6196 C.ar    1  UNL1        0.0729
     16 N          12.7570    6.7244   -7.4631 N.ar    1  UNL1       -0.2988
     17 C          12.5302    6.7642   -8.9018 C.3     1  UNL1        0.0167
     18 C          12.9256    5.5973   -6.7554 C.ar    1  UNL1        0.2477
     19 H           1.7082   -0.5713    0.6572 H       1  UNL1        0.0230
     20 H           0.3150   -0.5500   -0.4372 H       1  UNL1        0.0230
     21 H           0.8311    0.9434    0.3652 H       1  UNL1        0.0230
     22 H           2.4153   -0.6205   -1.7419 H       1  UNL1        0.0263
     23 H           1.5427    0.8855   -2.0352 H       1  UNL1        0.0263
     24 H           3.8759    0.5582   -0.0729 H       1  UNL1        0.0265
     25 H           3.0114    2.0646   -0.3843 H       1  UNL1        0.0265
     26 H           4.5740    0.4636   -2.4808 H       1  UNL1        0.0265
     27 H           3.7216    1.9793   -2.7864 H       1  UNL1        0.0265
     28 H           6.0144    1.6319   -0.7830 H       1  UNL1        0.0265
     29 H           5.1823    3.1484   -1.1312 H       1  UNL1        0.0265
     30 H           5.9513    3.0343   -3.5097 H       1  UNL1        0.0265
     31 H           6.7539    1.4963   -3.1806 H       1  UNL1        0.0265
     32 H           7.4072    4.1710   -1.8323 H       1  UNL1        0.0265
     33 H           8.1775    2.6327   -1.4424 H       1  UNL1        0.0265
     34 H           8.2563    4.0182   -4.1766 H       1  UNL1        0.0265
     35 H           8.9815    2.4478   -3.8204 H       1  UNL1        0.0265
     36 H           9.7032    5.0946   -2.4523 H       1  UNL1        0.0265
     37 H          10.3893    3.5249   -2.0318 H       1  UNL1        0.0265
     38 H          11.2697    3.2991   -4.3818 H       1  UNL1        0.0267
     39 H          10.6315    4.9023   -4.7577 H       1  UNL1        0.0267
     40 H          12.6508    4.3048   -2.5289 H       1  UNL1        0.0326
     41 H          12.0674    5.9056   -2.9799 H       1  UNL1        0.0326
     42 H          13.6409    4.0202   -4.8301 H       1  UNL1        0.1031
     43 H          14.3486    5.3437   -3.9010 H       1  UNL1        0.1031
     44 H          13.2639    7.7862   -4.4070 H       1  UNL1        0.1392
     45 H          12.7462    8.8100   -7.0232 H       1  UNL1        0.0871
     46 H          12.2193    7.7665   -9.2081 H       1  UNL1        0.0457
     47 H          11.7466    6.0473   -9.1608 H       1  UNL1        0.0457
     48 H          13.4601    6.4972   -9.4110 H       1  UNL1        0.0457
     49 H          12.9040    4.5872   -7.1484 H       1  UNL1        0.1600
@<TRIPOS>BOND
     1     1     2    1
     2     2     3    1
     3     3     4    1
     4     4     5    1
     5     5     6    1
     6     6     7    1
     7     7     8    1
     8     8     9    1
     9     9    10    1
    10    10    11    1
    11    11    12    1
    12    12    13    1
    13    13    14   ar
    14    14    15   ar
    15    15    16   ar
    16    16    17    1
    17    16    18   ar
    18    13    18   ar
    19     1    19    1
    20     1    20    1
    21     1    21    1
    22     2    22    1
    23     2    23    1
    24     3    24    1
    25     3    25    1
    26     4    26    1
    27     4    27    1
    28     5    28    1
    29     5    29    1
    30     6    30    1
    31     6    31    1
    32     7    32    1
    33     7    33    1
    34     8    34    1
    35     8    35    1
    36     9    36    1
    37     9    37    1
    38    10    38    1
    39    10    39    1
    40    11    40    1
    41    11    41    1
    42    12    42    1
    43    12    43    1
    44    14    44    1
    45    15    45    1
    46    17    46    1
    47    17    47    1
    48    17    48    1
    49    18    49    1
