@<TRIPOS>MOLECULE
*****
 55 55 0 0 0
SMALL
GASTEIGER

@<TRIPOS>ATOM
      1 C           0.9009   -0.1370   -0.1091 C.3     1  UNL1       -0.0653
      2 C           2.2788    0.4901   -0.2431 C.3     1  UNL1       -0.0559
      3 C           2.9688    0.6288    1.1137 C.3     1  UNL1       -0.0533
      4 C           4.4208    1.0802    0.9514 C.3     1  UNL1       -0.0531
      5 C           5.0374    1.4862    2.2900 C.3     1  UNL1       -0.0531
      6 C           6.5515    1.6848    2.1741 C.3     1  UNL1       -0.0531
      7 C           7.0615    2.6919    3.2041 C.3     1  UNL1       -0.0531
      8 C           8.5890    2.7027    3.2813 C.3     1  UNL1       -0.0531
      9 C           9.0828    3.8958    4.0999 C.3     1  UNL1       -0.0529
     10 C          10.5745    3.7898    4.4191 C.3     1  UNL1       -0.0483
     11 C          11.0545    5.0248    5.1907 C.3     1  UNL1       -0.0125
     12 C          12.5022    4.8487    5.6510 C.3     1  UNL1       -0.0302
     13 N          13.0444    5.9856    6.5518 N.4     1  UNL1        0.2444
     14 C          14.5228    5.6541    6.8044 C.3     1  UNL1       -0.0411
     15 C          12.9190    7.3686    5.8630 C.3     1  UNL1       -0.0063
     16 C          13.3039    8.5118    6.8146 C.3     1  UNL1        0.0878
     17 O          12.5149    8.4811    8.0076 O.3     1  UNL1       -0.3693
     18 C          12.6925    7.2640    8.7380 C.3     1  UNL1        0.0878
     19 C          12.2797    6.0426    7.9020 C.3     1  UNL1       -0.0063
     20 H           0.9757   -1.1617    0.2691 H       1  UNL1        0.0230
     21 H           0.4043   -0.1716   -1.0839 H       1  UNL1        0.0230
     22 H           0.2692    0.4375    0.5756 H       1  UNL1        0.0230
     23 H           2.8880   -0.1222   -0.9177 H       1  UNL1        0.0263
     24 H           2.1804    1.4801   -0.7045 H       1  UNL1        0.0263
     25 H           2.9496   -0.3310    1.6443 H       1  UNL1        0.0265
     26 H           2.4153    1.3484    1.7293 H       1  UNL1        0.0265
     27 H           5.0027    0.2696    0.4964 H       1  UNL1        0.0265
     28 H           4.4706    1.9365    0.2671 H       1  UNL1        0.0265
     29 H           4.8372    0.7201    3.0494 H       1  UNL1        0.0265
     30 H           4.5533    2.4085    2.6339 H       1  UNL1        0.0265
     31 H           7.0482    0.7162    2.3102 H       1  UNL1        0.0265
     32 H           6.8180    2.0418    1.1720 H       1  UNL1        0.0265
     33 H           6.6530    2.4588    4.1950 H       1  UNL1        0.0265
     34 H           6.6953    3.6898    2.9319 H       1  UNL1        0.0265
     35 H           8.9301    1.7650    3.7367 H       1  UNL1        0.0265
     36 H           9.0218    2.7499    2.2748 H       1  UNL1        0.0265
     37 H           8.5177    3.9611    5.0377 H       1  UNL1        0.0265
     38 H           8.8877    4.8205    3.5424 H       1  UNL1        0.0265
     39 H          11.1523    3.6842    3.4932 H       1  UNL1        0.0267
     40 H          10.7509    2.8880    5.0180 H       1  UNL1        0.0267
     41 H          10.9629    5.8943    4.5313 H       1  UNL1        0.0317
     42 H          10.3858    5.1833    6.0405 H       1  UNL1        0.0317
     43 H          13.1650    4.7945    4.7790 H       1  UNL1        0.0815
     44 H          12.6098    3.9225    6.2283 H       1  UNL1        0.0815
     45 H          15.0403    5.6394    5.8406 H       1  UNL1        0.0778
     46 H          14.5761    4.6716    7.2833 H       1  UNL1        0.0778
     47 H          14.9691    6.4078    7.4537 H       1  UNL1        0.0778
     48 H          11.8672    7.4906    5.5903 H       1  UNL1        0.0838
     49 H          13.5403    7.3525    4.9625 H       1  UNL1        0.0838
     50 H          13.1109    9.4698    6.3210 H       1  UNL1        0.0613
     51 H          14.3667    8.4953    7.0771 H       1  UNL1        0.0613
     52 H          12.0555    7.3214    9.6266 H       1  UNL1        0.0613
     53 H          13.7268    7.1959    9.0904 H       1  UNL1        0.0613
     54 H          11.2176    6.1332    7.6616 H       1  UNL1        0.0838
     55 H          12.4615    5.1017    8.4305 H       1  UNL1        0.0838
@<TRIPOS>BOND
     1     1     2    1
     2     2     3    1
     3     3     4    1
     4     4     5    1
     5     5     6    1
     6     6     7    1
     7     7     8    1
     8     8     9    1
     9     9    10    1
    10    10    11    1
    11    11    12    1
    12    12    13    1
    13    13    14    1
    14    13    15    1
    15    15    16    1
    16    16    17    1
    17    17    18    1
    18    18    19    1
    19    13    19    1
    20     1    20    1
    21     1    21    1
    22     1    22    1
    23     2    23    1
    24     2    24    1
    25     3    25    1
    26     3    26    1
    27     4    27    1
    28     4    28    1
    29     5    29    1
    30     5    30    1
    31     6    31    1
    32     6    32    1
    33     7    33    1
    34     7    34    1
    35     8    35    1
    36     8    36    1
    37     9    37    1
    38     9    38    1
    39    10    39    1
    40    10    40    1
    41    11    41    1
    42    11    42    1
    43    12    43    1
    44    12    44    1
    45    14    45    1
    46    14    46    1
    47    14    47    1
    48    15    48    1
    49    15    49    1
    50    16    50    1
    51    16    51    1
    52    18    52    1
    53    18    53    1
    54    19    54    1
    55    19    55    1
