@<TRIPOS>MOLECULE
*****
 28 29 0 0 0
SMALL
GASTEIGER

@<TRIPOS>ATOM
      1 CL          1.0376    0.2398    0.0057 Cl      1  UNL1       -0.0835
      2 C           2.7479    0.0600    0.0000 C.ar    1  UNL1        0.0410
      3 C           3.5312    0.8947   -0.7892 C.ar    1  UNL1       -0.0431
      4 C           4.9230    0.7445   -0.8050 C.ar    1  UNL1       -0.0565
      5 C           5.5531   -0.2351   -0.0223 C.ar    1  UNL1       -0.0373
      6 C           7.0731   -0.4609    0.0025 C.3     1  UNL1        0.0405
      7 C           7.8526    0.5557    0.8531 C.ar    1  UNL1       -0.0191
      8 C           7.7860    1.9341    0.5673 C.ar    1  UNL1       -0.0565
      9 C           8.5159    2.8726    1.3029 C.ar    1  UNL1       -0.0614
     10 C           9.3305    2.4593    2.3485 C.ar    1  UNL1       -0.0604
     11 C           9.4183    1.1048    2.6547 C.ar    1  UNL1       -0.0431
     12 C           8.6941    0.1602    1.9148 C.ar    1  UNL1        0.0448
     13 CL          8.9175   -1.4960    2.3653 Cl      1  UNL1       -0.0832
     14 C           7.7827   -0.7891   -1.3452 C.3     1  UNL1        0.1186
     15 CL          7.0520   -2.2202   -2.1432 Cl      1  UNL1       -0.1036
     16 CL          7.8624    0.5433   -2.5316 Cl      1  UNL1       -0.1036
     17 C           4.7356   -1.0602    0.7780 C.ar    1  UNL1       -0.0565
     18 C           3.3448   -0.9205    0.7837 C.ar    1  UNL1       -0.0431
     19 H           3.0675    1.6648   -1.4009 H       1  UNL1        0.0632
     20 H           5.4877    1.4158   -1.4437 H       1  UNL1        0.0621
     21 H           7.1563   -1.4144    0.5372 H       1  UNL1        0.0424
     22 H           7.1709    2.3130   -0.2441 H       1  UNL1        0.0621
     23 H           8.4468    3.9291    1.0525 H       1  UNL1        0.0618
     24 H           9.8985    3.1881    2.9212 H       1  UNL1        0.0618
     25 H          10.0614    0.7872    3.4725 H       1  UNL1        0.0632
     26 H           8.8237   -1.0623   -1.1440 H       1  UNL1        0.0643
     27 H           5.1747   -1.8380    1.4021 H       1  UNL1        0.0621
     28 H           2.7384   -1.5805    1.3978 H       1  UNL1        0.0632
@<TRIPOS>BOND
     1     1     2    1
     2     2     3   ar
     3     3     4   ar
     4     4     5   ar
     5     5     6    1
     6     6     7    1
     7     7     8   ar
     8     8     9   ar
     9     9    10   ar
    10    10    11   ar
    11    11    12   ar
    12     7    12   ar
    13    12    13    1
    14     6    14    1
    15    14    15    1
    16    14    16    1
    17     5    17   ar
    18    17    18   ar
    19     2    18   ar
    20     3    19    1
    21     4    20    1
    22     6    21    1
    23     8    22    1
    24     9    23    1
    25    10    24    1
    26    11    25    1
    27    14    26    1
    28    17    27    1
    29    18    28    1
