@<TRIPOS>MOLECULE
*****
 19 20 0 0 0
SMALL
GASTEIGER

@<TRIPOS>ATOM
      1 C           0.9749   -0.0760    0.0361 C.3     1  UNL1        0.0119
      2 N           2.4200   -0.0358    0.0364 N.ar    1  UNL1       -0.3497
      3 C           3.1689    1.1113    0.0366 C.ar    1  UNL1        0.0054
      4 C           4.4962    0.7475    0.0368 C.ar    1  UNL1       -0.0365
      5 C           4.5571   -0.6729    0.0367 C.ar    1  UNL1       -0.0002
      6 C           5.6155   -1.6026    0.0367 C.ar    1  UNL1       -0.0526
      7 C           5.3288   -2.9719    0.0365 C.ar    1  UNL1       -0.0611
      8 C           4.0107   -3.4197    0.0362 C.ar    1  UNL1       -0.0598
      9 C           2.9431   -2.5166    0.0362 C.ar    1  UNL1       -0.0376
     10 C           3.2413   -1.1446    0.0364 C.ar    1  UNL1        0.0488
     11 H           0.5795    0.9430    0.0362 H       1  UNL1        0.0456
     12 H           0.6433   -0.6010    0.9356 H       1  UNL1        0.0456
     13 H           0.6436   -0.6007   -0.8636 H       1  UNL1        0.0456
     14 H           2.7054    2.0890    0.0367 H       1  UNL1        0.0809
     15 H           5.3366    1.4287    0.0371 H       1  UNL1        0.0639
     16 H           6.6459   -1.2604    0.0369 H       1  UNL1        0.0624
     17 H           6.1444   -3.6905    0.0366 H       1  UNL1        0.0618
     18 H           3.8067   -4.4880    0.0361 H       1  UNL1        0.0618
     19 H           1.9191   -2.8750    0.0359 H       1  UNL1        0.0638
@<TRIPOS>BOND
     1     1     2    1
     2     2     3   ar
     3     3     4   ar
     4     4     5   ar
     5     5     6   ar
     6     6     7   ar
     7     7     8   ar
     8     8     9   ar
     9     9    10   ar
    10     5    10   ar
    11     2    10   ar
    12     1    11    1
    13     1    12    1
    14     1    13    1
    15     3    14    1
    16     4    15    1
    17     6    16    1
    18     7    17    1
    19     8    18    1
    20     9    19    1
