@<TRIPOS>MOLECULE
*****
 128 129 0 0 0
SMALL
GASTEIGER

@<TRIPOS>ATOM
      1 C           2.1353    0.2842    0.7955 C.3     1  UNL1       -0.0653
      2 C           3.2715   -0.7264    0.7868 C.3     1  UNL1       -0.0559
      3 C           4.2021   -0.5391    1.9859 C.3     1  UNL1       -0.0533
      4 C           5.3446   -1.5568    1.9662 C.3     1  UNL1       -0.0531
      5 C           6.2619   -1.4005    3.1820 C.3     1  UNL1       -0.0530
      6 C           7.3990   -2.4250    3.1530 C.3     1  UNL1       -0.0528
      7 C           8.2924   -2.3203    4.3930 C.3     1  UNL1       -0.0496
      8 C           9.4151   -3.3620    4.3543 C.3     1  UNL1       -0.0348
      9 C          10.2771   -3.3071    5.5881 C.2     1  UNL1       -0.0879
     10 C          10.3685   -4.3112    6.4763 C.2     1  UNL1       -0.0879
     11 C          11.1934   -4.3630    7.7383 C.3     1  UNL1       -0.0348
     12 C          12.2913   -3.3096    7.9389 C.3     1  UNL1       -0.0496
     13 C          13.5099   -3.4796    7.0237 C.3     1  UNL1       -0.0528
     14 C          14.4443   -4.6451    7.3789 C.3     1  UNL1       -0.0530
     15 C          15.1745   -4.4583    8.7157 C.3     1  UNL1       -0.0526
     16 C          16.3479   -5.4351    8.8573 C.3     1  UNL1       -0.0430
     17 C          17.1082   -5.2347   10.1722 C.3     1  UNL1        0.0449
     18 C          18.4504   -5.9353   10.1578 C.2     1  UNL1        0.3072
     19 O          18.7872   -6.7987    9.3604 O.2     1  UNL1       -0.2509
     20 O          19.2364   -5.4549   11.1631 O.3     1  UNL1       -0.4608
     21 C          20.6258   -5.8185   11.1168 C.3     1  UNL1        0.1315
     22 C          21.0210   -6.8604   12.1749 C.3     1  UNL1        0.1605
     23 H          20.7187   -6.4765   13.1584 H       1  UNL1        0.0792
     24 C          20.3691   -8.2257   11.9151 C.3     1  UNL1        0.0993
     25 O          19.1967   -8.3627   12.7166 O.3     1  UNL1       -0.2828
     26 P          18.6200   -9.9933   12.7550 P.3     1  UNL1        0.4752
     27 O          17.8234   -9.6620   14.0219 O.2     1  UNL1       -0.2273
     28 O          17.6113   -9.6485   11.5229 O.3     1  UNL1       -0.3025
     29 O          18.0433  -11.6239   12.7934 O.3     1  UNL1       -0.2813
     30 C          16.7350  -11.9200   13.2722 C.3     1  UNL1        0.0989
     31 C          16.7959  -12.2555   14.7723 C.3     1  UNL1       -0.0063
     32 N          15.5802  -13.0427   15.3142 N.4     1  UNL1        0.2385
     33 C          15.7518  -13.1644   16.8319 C.3     1  UNL1       -0.0417
     34 C          14.2817  -12.3015   15.0359 C.3     1  UNL1       -0.0417
     35 C          15.5234  -14.4456   14.7263 C.3     1  UNL1       -0.0417
     36 O          22.4687   -6.9593   12.1321 O.3     1  UNL1       -0.4555
     37 C          23.0550   -7.5892   13.1910 C.2     1  UNL1        0.3078
     38 O          22.4399   -8.1743   14.0717 O.2     1  UNL1       -0.2508
     39 C          24.5579   -7.4599   13.1078 C.3     1  UNL1        0.0489
     40 C          25.2219   -8.1533   14.2980 C.3     1  UNL1       -0.0176
     41 C          26.7207   -7.9798   14.3657 C.ar    1  UNL1       -0.0468
     42 C          27.2896   -6.7080   14.5052 C.ar    1  UNL1       -0.0580
     43 C          28.6694   -6.5601   14.6817 C.ar    1  UNL1       -0.0543
     44 C          29.5113   -7.6774   14.7232 C.ar    1  UNL1       -0.0250
     45 C          30.9266   -7.4799   15.0645 C.2     1  UNL1       -0.0546
     46 C          32.0269   -7.9991   14.4991 C.2     1  UNL1       -0.0612
     47 C          32.1123   -8.8627   13.3434 C.2     1  UNL1       -0.0617
     48 C          33.2843   -9.3566   12.9125 C.2     1  UNL1       -0.0617
     49 C          33.4098  -10.2158   11.7549 C.2     1  UNL1       -0.0612
     50 C          34.5548  -10.6823   11.2279 C.2     1  UNL1       -0.0546
     51 C          35.9216  -10.3876   11.6761 C.ar    1  UNL1       -0.0250
     52 C          36.4257   -9.0811   11.6611 C.ar    1  UNL1       -0.0546
     53 C          37.7381   -8.8245   12.0641 C.ar    1  UNL1       -0.0612
     54 C          38.5596   -9.8734   12.4734 C.ar    1  UNL1       -0.0617
     55 C          38.0709  -11.1790   12.4775 C.ar    1  UNL1       -0.0612
     56 C          36.7573  -11.4361   12.0768 C.ar    1  UNL1       -0.0546
     57 C          28.9465   -8.9477   14.5781 C.ar    1  UNL1       -0.0543
     58 C          27.5660   -9.0974   14.3935 C.ar    1  UNL1       -0.0580
     59 H           1.4809    0.1259   -0.0675 H       1  UNL1        0.0230
     60 H           2.5201    1.3078    0.7463 H       1  UNL1        0.0230
     61 H           1.5301    0.1871    1.7025 H       1  UNL1        0.0230
     62 H           3.8385   -0.6212   -0.1455 H       1  UNL1        0.0263
     63 H           2.8505   -1.7386    0.7975 H       1  UNL1        0.0263
     64 H           4.6148    0.4770    1.9766 H       1  UNL1        0.0265
     65 H           3.6286   -0.6468    2.9146 H       1  UNL1        0.0265
     66 H           5.9291   -1.4331    1.0463 H       1  UNL1        0.0265
     67 H           4.9292   -2.5719    1.9505 H       1  UNL1        0.0265
     68 H           5.6759   -1.5268    4.1004 H       1  UNL1        0.0265
     69 H           6.6802   -0.3869    3.2012 H       1  UNL1        0.0265
     70 H           6.9772   -3.4358    3.0930 H       1  UNL1        0.0265
     71 H           8.0039   -2.2741    2.2505 H       1  UNL1        0.0265
     72 H           7.6835   -2.4650    5.2943 H       1  UNL1        0.0268
     73 H           8.7212   -1.3121    4.4532 H       1  UNL1        0.0268
     74 H          10.0525   -3.1855    3.4793 H       1  UNL1        0.0307
     75 H           8.9827   -4.3626    4.2320 H       1  UNL1        0.0307
     76 H          10.8444   -2.3905    5.7273 H       1  UNL1        0.0569
     77 H           9.7689   -5.2046    6.3019 H       1  UNL1        0.0569
     78 H          11.6380   -5.3623    7.8095 H       1  UNL1        0.0307
     79 H          10.4914   -4.2857    8.5786 H       1  UNL1        0.0307
     80 H          12.6143   -3.3350    8.9858 H       1  UNL1        0.0268
     81 H          11.8695   -2.3086    7.7868 H       1  UNL1        0.0268
     82 H          14.0923   -2.5500    7.0491 H       1  UNL1        0.0265
     83 H          13.1810   -3.6018    5.9854 H       1  UNL1        0.0265
     84 H          15.1884   -4.7243    6.5761 H       1  UNL1        0.0265
     85 H          13.8948   -5.5928    7.3855 H       1  UNL1        0.0265
     86 H          14.4756   -4.6026    9.5472 H       1  UNL1        0.0265
     87 H          15.5549   -3.4319    8.7837 H       1  UNL1        0.0265
     88 H          17.0327   -5.2955    8.0112 H       1  UNL1        0.0270
     89 H          15.9840   -6.4684    8.7992 H       1  UNL1        0.0270
     90 H          16.5215   -5.6147   11.0148 H       1  UNL1        0.0377
     91 H          17.2929   -4.1646   10.3223 H       1  UNL1        0.0377
     92 H          21.1904   -4.8968   11.3051 H       1  UNL1        0.0736
     93 H          20.9401   -6.1389   10.1149 H       1  UNL1        0.0736
     94 H          21.0490   -9.0476   12.1615 H       1  UNL1        0.0604
     95 H          20.1002   -8.3574   10.8635 H       1  UNL1        0.0604
     96 H          16.8466   -9.1573   11.8731 H       1  UNL1        0.2220
     97 H          16.0418  -11.0982   13.0670 H       1  UNL1        0.0619
     98 H          16.3929  -12.7785   12.6899 H       1  UNL1        0.0619
     99 H          16.8629  -11.3459   15.3767 H       1  UNL1        0.0838
    100 H          17.6864  -12.8575   14.9927 H       1  UNL1        0.0838
    101 H          15.7724  -12.1583   17.2614 H       1  UNL1        0.0778
    102 H          16.6914  -13.6881   17.0322 H       1  UNL1        0.0778
    103 H          14.9059  -13.7310   17.2325 H       1  UNL1        0.0778
    104 H          14.3686  -11.2870   15.4355 H       1  UNL1        0.0778
    105 H          13.4652  -12.8389   15.5277 H       1  UNL1        0.0778
    106 H          14.1133  -12.2787   13.9560 H       1  UNL1        0.0778
    107 H          16.4887  -14.9319   14.8940 H       1  UNL1        0.0778
    108 H          15.3041  -14.3780   13.6585 H       1  UNL1        0.0778
    109 H          14.7253  -14.9988   15.2309 H       1  UNL1        0.0778
    110 H          24.8006   -6.3918   13.0951 H       1  UNL1        0.0381
    111 H          24.9007   -7.9116   12.1704 H       1  UNL1        0.0381
    112 H          24.9745   -9.2227   14.2676 H       1  UNL1        0.0318
    113 H          24.7997   -7.7790   15.2403 H       1  UNL1        0.0318
    114 H          26.6649   -5.8180   14.5173 H       1  UNL1        0.0620
    115 H          29.0795   -5.5609   14.8142 H       1  UNL1        0.0624
    116 H          31.0760   -6.8113   15.9128 H       1  UNL1        0.0623
    117 H          32.9817   -7.7196   14.9466 H       1  UNL1        0.0618
    118 H          31.1944   -9.0893   12.8085 H       1  UNL1        0.0618
    119 H          34.1982   -9.1200   13.4537 H       1  UNL1        0.0618
    120 H          32.4786  -10.5248   11.2823 H       1  UNL1        0.0618
    121 H          34.5008  -11.3547   10.3736 H       1  UNL1        0.0623
    122 H          35.7996   -8.2549   11.3320 H       1  UNL1        0.0623
    123 H          38.1200   -7.8070   12.0534 H       1  UNL1        0.0618
    124 H          39.5820   -9.6742   12.7842 H       1  UNL1        0.0618
    125 H          38.7132  -11.9980   12.7908 H       1  UNL1        0.0618
    126 H          36.3911  -12.4599   12.0844 H       1  UNL1        0.0623
    127 H          29.5695   -9.8366   14.6488 H       1  UNL1        0.0624
    128 H          27.1570  -10.1021   14.3117 H       1  UNL1        0.0620
@<TRIPOS>BOND
     1     1     2    1
     2     2     3    1
     3     3     4    1
     4     4     5    1
     5     5     6    1
     6     6     7    1
     7     7     8    1
     8     8     9    1
     9     9    10    2
    10    10    11    1
    11    11    12    1
    12    12    13    1
    13    13    14    1
    14    14    15    1
    15    15    16    1
    16    16    17    1
    17    17    18    1
    18    18    19    2
    19    18    20    1
    20    20    21    1
    21    21    22    1
    22    22    23    1
    23    22    24    1
    24    24    25    1
    25    25    26    1
    26    26    27    2
    27    26    28    1
    28    26    29    1
    29    29    30    1
    30    30    31    1
    31    31    32    1
    32    32    33    1
    33    32    34    1
    34    32    35    1
    35    22    36    1
    36    36    37    1
    37    37    38    2
    38    37    39    1
    39    39    40    1
    40    40    41    1
    41    41    42   ar
    42    42    43   ar
    43    43    44   ar
    44    44    45    1
    45    45    46    2
    46    46    47    1
    47    47    48    2
    48    48    49    1
    49    49    50    2
    50    50    51    1
    51    51    52   ar
    52    52    53   ar
    53    53    54   ar
    54    54    55   ar
    55    55    56   ar
    56    51    56   ar
    57    44    57   ar
    58    57    58   ar
    59    41    58   ar
    60     1    59    1
    61     1    60    1
    62     1    61    1
    63     2    62    1
    64     2    63    1
    65     3    64    1
    66     3    65    1
    67     4    66    1
    68     4    67    1
    69     5    68    1
    70     5    69    1
    71     6    70    1
    72     6    71    1
    73     7    72    1
    74     7    73    1
    75     8    74    1
    76     8    75    1
    77     9    76    1
    78    10    77    1
    79    11    78    1
    80    11    79    1
    81    12    80    1
    82    12    81    1
    83    13    82    1
    84    13    83    1
    85    14    84    1
    86    14    85    1
    87    15    86    1
    88    15    87    1
    89    16    88    1
    90    16    89    1
    91    17    90    1
    92    17    91    1
    93    21    92    1
    94    21    93    1
    95    24    94    1
    96    24    95    1
    97    28    96    1
    98    30    97    1
    99    30    98    1
   100    31    99    1
   101    31   100    1
   102    33   101    1
   103    33   102    1
   104    33   103    1
   105    34   104    1
   106    34   105    1
   107    34   106    1
   108    35   107    1
   109    35   108    1
   110    35   109    1
   111    39   110    1
   112    39   111    1
   113    40   112    1
   114    40   113    1
   115    42   114    1
   116    43   115    1
   117    45   116    1
   118    46   117    1
   119    47   118    1
   120    48   119    1
   121    49   120    1
   122    50   121    1
   123    52   122    1
   124    53   123    1
   125    54   124    1
   126    55   125    1
   127    56   126    1
   128    57   127    1
   129    58   128    1
