@<TRIPOS>MOLECULE
*****
 57 57 0 0 0
SMALL
GASTEIGER

@<TRIPOS>ATOM
      1 C           1.0598   -0.0420   -0.1139 C.3     1  UNL1       -0.0653
      2 C           2.5115    0.0226    0.3326 C.3     1  UNL1       -0.0559
      3 C           3.0689   -1.3687    0.6341 C.3     1  UNL1       -0.0533
      4 C           4.5447   -1.3000    1.0289 C.3     1  UNL1       -0.0531
      5 C           5.0955   -2.6821    1.3854 C.3     1  UNL1       -0.0531
      6 C           6.5928   -2.6160    1.6899 C.3     1  UNL1       -0.0531
      7 C           7.1383   -3.9731    2.1381 C.3     1  UNL1       -0.0531
      8 C           8.6522   -3.9135    2.3481 C.3     1  UNL1       -0.0531
      9 C           9.1962   -5.2257    2.9149 C.3     1  UNL1       -0.0529
     10 C          10.7192   -5.1745    3.0537 C.3     1  UNL1       -0.0483
     11 C          11.2663   -6.4312    3.7435 C.3     1  UNL1       -0.0125
     12 C          12.7839   -6.3586    3.8423 C.3     1  UNL1       -0.0303
     13 N          13.4927   -7.5643    4.5076 N.4     1  UNL1        0.2412
     14 C          14.9748   -7.1005    4.6455 C.3     1  UNL1       -0.0413
     15 C          13.0074   -7.8563    5.9362 C.3     1  UNL1       -0.0303
     16 C          11.8197   -8.8060    6.0112 C.3     1  UNL1       -0.0123
     17 C          12.0423  -10.0709    5.2049 C.3     1  UNL1       -0.0434
     18 C          12.3260   -9.7271    3.7552 C.3     1  UNL1       -0.0123
     19 C          13.5328   -8.8147    3.6119 C.3     1  UNL1       -0.0303
     20 H           0.6783    0.9652   -0.3088 H       1  UNL1        0.0230
     21 H           0.4314   -0.5008    0.6560 H       1  UNL1        0.0230
     22 H           0.9591   -0.6267   -1.0339 H       1  UNL1        0.0230
     23 H           2.5853    0.6528    1.2266 H       1  UNL1        0.0263
     24 H           3.1074    0.5025   -0.4524 H       1  UNL1        0.0263
     25 H           2.4895   -1.8284    1.4439 H       1  UNL1        0.0265
     26 H           2.9566   -2.0102   -0.2485 H       1  UNL1        0.0265
     27 H           4.6662   -0.6276    1.8870 H       1  UNL1        0.0265
     28 H           5.1239   -0.8738    0.2006 H       1  UNL1        0.0265
     29 H           4.5561   -3.0773    2.2547 H       1  UNL1        0.0265
     30 H           4.9231   -3.3762    0.5540 H       1  UNL1        0.0265
     31 H           6.7770   -1.8737    2.4764 H       1  UNL1        0.0265
     32 H           7.1308   -2.2782    0.7957 H       1  UNL1        0.0265
     33 H           6.9038   -4.7361    1.3860 H       1  UNL1        0.0265
     34 H           6.6447   -4.2740    3.0701 H       1  UNL1        0.0265
     35 H           8.8972   -3.0938    3.0346 H       1  UNL1        0.0265
     36 H           9.1432   -3.6912    1.3927 H       1  UNL1        0.0265
     37 H           8.7406   -5.4150    3.8945 H       1  UNL1        0.0265
     38 H           8.9159   -6.0599    2.2605 H       1  UNL1        0.0265
     39 H          11.0068   -4.2886    3.6333 H       1  UNL1        0.0267
     40 H          11.1715   -5.0709    2.0597 H       1  UNL1        0.0267
     41 H          10.8216   -6.4809    4.7402 H       1  UNL1        0.0317
     42 H          10.9477   -7.3043    3.1734 H       1  UNL1        0.0317
     43 H          13.0589   -5.4746    4.4316 H       1  UNL1        0.0815
     44 H          13.2266   -6.2472    2.8449 H       1  UNL1        0.0815
     45 H          15.0000   -6.2167    5.2902 H       1  UNL1        0.0778
     46 H          15.3546   -6.8674    3.6462 H       1  UNL1        0.0778
     47 H          15.5561   -7.9117    5.0950 H       1  UNL1        0.0778
     48 H          12.7865   -6.8963    6.4156 H       1  UNL1        0.0815
     49 H          13.8481   -8.3161    6.4709 H       1  UNL1        0.0815
     50 H          10.8975   -8.3233    5.6797 H       1  UNL1        0.0317
     51 H          11.6512   -9.0749    7.0610 H       1  UNL1        0.0317
     52 H          11.1566  -10.7129    5.2683 H       1  UNL1        0.0269
     53 H          12.8805  -10.6397    5.6259 H       1  UNL1        0.0269
     54 H          11.4387   -9.2872    3.2946 H       1  UNL1        0.0317
     55 H          12.5178  -10.6534    3.2000 H       1  UNL1        0.0317
     56 H          13.6627   -8.4823    2.5764 H       1  UNL1        0.0815
     57 H          14.4268   -9.3832    3.8980 H       1  UNL1        0.0815
@<TRIPOS>BOND
     1     1     2    1
     2     2     3    1
     3     3     4    1
     4     4     5    1
     5     5     6    1
     6     6     7    1
     7     7     8    1
     8     8     9    1
     9     9    10    1
    10    10    11    1
    11    11    12    1
    12    12    13    1
    13    13    14    1
    14    13    15    1
    15    15    16    1
    16    16    17    1
    17    17    18    1
    18    18    19    1
    19    13    19    1
    20     1    20    1
    21     1    21    1
    22     1    22    1
    23     2    23    1
    24     2    24    1
    25     3    25    1
    26     3    26    1
    27     4    27    1
    28     4    28    1
    29     5    29    1
    30     5    30    1
    31     6    31    1
    32     6    32    1
    33     7    33    1
    34     7    34    1
    35     8    35    1
    36     8    36    1
    37     9    37    1
    38     9    38    1
    39    10    39    1
    40    10    40    1
    41    11    41    1
    42    11    42    1
    43    12    43    1
    44    12    44    1
    45    14    45    1
    46    14    46    1
    47    14    47    1
    48    15    48    1
    49    15    49    1
    50    16    50    1
    51    16    51    1
    52    17    52    1
    53    17    53    1
    54    18    54    1
    55    18    55    1
    56    19    56    1
    57    19    57    1
