@<TRIPOS>MOLECULE
*****
 134 133 0 0 0
SMALL
GASTEIGER

@<TRIPOS>ATOM
      1 C         -20.0086   -8.6540    2.0929 C.3     1  UNL1       -0.0653
      2 C         -19.2707   -8.0636    0.9017 C.3     1  UNL1       -0.0559
      3 C         -17.7789   -8.3935    0.9471 C.3     1  UNL1       -0.0533
      4 C         -17.0469   -7.8347   -0.2745 C.3     1  UNL1       -0.0531
      5 C         -15.5437   -8.1069   -0.1948 C.3     1  UNL1       -0.0531
      6 C         -14.8190   -7.6176   -1.4505 C.3     1  UNL1       -0.0531
      7 C         -13.3040   -7.7812   -1.3161 C.3     1  UNL1       -0.0531
      8 C         -12.5796   -7.3937   -2.6072 C.3     1  UNL1       -0.0531
      9 C         -11.0623   -7.3962   -2.4120 C.3     1  UNL1       -0.0531
     10 C         -10.3213   -7.1463   -3.7277 C.3     1  UNL1       -0.0531
     11 C          -8.8238   -6.9461   -3.4867 C.3     1  UNL1       -0.0531
     12 C          -8.0383   -6.8774   -4.7986 C.3     1  UNL1       -0.0530
     13 C          -6.5871   -6.4622   -4.5473 C.3     1  UNL1       -0.0526
     14 C          -5.7174   -6.6244   -5.7961 C.3     1  UNL1       -0.0430
     15 C          -4.3322   -6.0176   -5.5797 C.3     1  UNL1        0.0449
     16 C          -3.2939   -6.6229   -6.4926 C.2     1  UNL1        0.3072
     17 O          -3.1073   -7.8270   -6.6147 O.2     1  UNL1       -0.2509
     18 O          -2.5429   -5.6501   -7.0737 O.3     1  UNL1       -0.4608
     19 C          -1.4006   -6.1328   -7.7887 C.3     1  UNL1        0.1315
     20 C          -0.5633   -4.9976   -8.4049 C.3     1  UNL1        0.1604
     21 C          -0.4694   -3.7558   -7.5063 C.3     1  UNL1        0.0951
     22 O          -1.5887   -2.8919   -7.6037 O.3     1  UNL1       -0.3236
     23 P          -1.8094   -2.1311   -9.0110 P.3     1  UNL1        0.2128
     24 O          -0.4911   -1.7526   -9.6308 O.2     1  UNL1       -0.5172
     25 O          -2.8437   -2.8494   -9.8351 O.co2   1  UNL1       -0.4373
     26 O          -2.4890   -0.7588   -8.4715 O.3     1  UNL1       -0.3221
     27 C          -3.2365   -0.0184   -9.4207 C.3     1  UNL1        0.0947
     28 C          -2.3658    0.5166  -10.5710 C.3     1  UNL1       -0.0064
     29 N          -2.9379    0.2757  -11.9944 N.4     1  UNL1        0.2385
     30 C          -1.9405    0.8470  -12.9907 C.3     1  UNL1       -0.0417
     31 C          -3.0552   -1.2311  -12.2649 C.3     1  UNL1       -0.0417
     32 C          -4.2812    0.9426  -12.1676 C.3     1  UNL1       -0.0417
     33 O           0.7976   -5.4698   -8.5864 O.3     1  UNL1       -0.4555
     34 C           1.0438   -6.2345   -9.6808 C.2     1  UNL1        0.3075
     35 O           0.2060   -6.6314  -10.4771 O.2     1  UNL1       -0.2508
     36 C           2.5167   -6.5555   -9.7621 C.3     1  UNL1        0.0450
     37 C           3.0806   -6.1717  -11.1262 C.3     1  UNL1       -0.0430
     38 C           4.5877   -6.4269  -11.1967 C.3     1  UNL1       -0.0526
     39 C           5.1482   -6.0624  -12.5734 C.3     1  UNL1       -0.0530
     40 C           6.6346   -6.3974  -12.7297 C.3     1  UNL1       -0.0528
     41 C           7.5505   -5.5004  -11.8928 C.3     1  UNL1       -0.0496
     42 C           9.0266   -5.8438  -12.1253 C.3     1  UNL1       -0.0348
     43 C           9.9226   -4.9271  -11.3398 C.2     1  UNL1       -0.0879
     44 C          10.9111   -4.1445  -11.8032 C.2     1  UNL1       -0.0879
     45 C          11.3937   -4.0138  -13.2213 C.3     1  UNL1       -0.0348
     46 C          12.9241   -4.0557  -13.2906 C.3     1  UNL1       -0.0496
     47 C          13.4215   -3.9563  -14.7347 C.3     1  UNL1       -0.0528
     48 C          14.9488   -3.8855  -14.7928 C.3     1  UNL1       -0.0530
     49 C          15.4520   -3.8293  -16.2373 C.3     1  UNL1       -0.0531
     50 C          16.9750   -3.6839  -16.2868 C.3     1  UNL1       -0.0533
     51 C          17.5256   -3.5625  -17.7093 C.3     1  UNL1       -0.0559
     52 C          17.3816   -4.8387  -18.5240 C.3     1  UNL1       -0.0653
     53 H         -19.9275   -9.7456    2.1019 H       1  UNL1        0.0230
     54 H         -21.0706   -8.3930    2.0484 H       1  UNL1        0.0230
     55 H         -19.6037   -8.2714    3.0353 H       1  UNL1        0.0230
     56 H         -19.7122   -8.4524   -0.0232 H       1  UNL1        0.0263
     57 H         -19.4099   -6.9762    0.8957 H       1  UNL1        0.0263
     58 H         -17.6430   -9.4812    0.9879 H       1  UNL1        0.0265
     59 H         -17.3404   -7.9788    1.8629 H       1  UNL1        0.0265
     60 H         -17.4577   -8.2867   -1.1854 H       1  UNL1        0.0265
     61 H         -17.2178   -6.7535   -0.3444 H       1  UNL1        0.0265
     62 H         -15.1305   -7.6076    0.6901 H       1  UNL1        0.0265
     63 H         -15.3682   -9.1824   -0.0701 H       1  UNL1        0.0265
     64 H         -15.0551   -6.5610   -1.6263 H       1  UNL1        0.0265
     65 H         -15.1787   -8.1788   -2.3213 H       1  UNL1        0.0265
     66 H         -12.9456   -7.1582   -0.4876 H       1  UNL1        0.0265
     67 H         -13.0635   -8.8215   -1.0647 H       1  UNL1        0.0265
     68 H         -12.8559   -8.0947   -3.4040 H       1  UNL1        0.0265
     69 H         -12.9005   -6.3953   -2.9286 H       1  UNL1        0.0265
     70 H         -10.7422   -8.3593   -1.9957 H       1  UNL1        0.0265
     71 H         -10.7928   -6.6242   -1.6809 H       1  UNL1        0.0265
     72 H         -10.4834   -7.9959   -4.4020 H       1  UNL1        0.0265
     73 H         -10.7285   -6.2569   -4.2235 H       1  UNL1        0.0265
     74 H          -8.4318   -7.7698   -2.8773 H       1  UNL1        0.0265
     75 H          -8.6734   -6.0230   -2.9134 H       1  UNL1        0.0265
     76 H          -8.5062   -6.1576   -5.4809 H       1  UNL1        0.0265
     77 H          -8.0705   -7.8575   -5.2895 H       1  UNL1        0.0265
     78 H          -6.1628   -7.0696   -3.7380 H       1  UNL1        0.0265
     79 H          -6.5657   -5.4185   -4.2102 H       1  UNL1        0.0265
     80 H          -6.1914   -6.1366   -6.6567 H       1  UNL1        0.0270
     81 H          -5.6452   -7.6905   -6.0426 H       1  UNL1        0.0270
     82 H          -3.9792   -6.1816   -4.5546 H       1  UNL1        0.0377
     83 H          -4.3827   -4.9335   -5.7341 H       1  UNL1        0.0377
     84 H          -1.7267   -6.8138   -8.5845 H       1  UNL1        0.0736
     85 H          -0.7718   -6.7114   -7.0989 H       1  UNL1        0.0736
     86 H          -0.9885   -4.7174   -9.3743 H       1  UNL1        0.0792
     87 H          -0.3692   -4.0580   -6.4572 H       1  UNL1        0.0602
     88 H           0.4390   -3.1839   -7.7293 H       1  UNL1        0.0602
     89 H          -3.6686    0.8336   -8.8844 H       1  UNL1        0.0618
     90 H          -4.0822   -0.6258   -9.7505 H       1  UNL1        0.0618
     91 H          -2.2882    1.6069  -10.4709 H       1  UNL1        0.0838
     92 H          -1.3453    0.1365  -10.5742 H       1  UNL1        0.0838
     93 H          -0.9863    0.3240  -12.8765 H       1  UNL1        0.0778
     94 H          -1.8200    1.9153  -12.7870 H       1  UNL1        0.0778
     95 H          -2.3347    0.7010  -14.0013 H       1  UNL1        0.0778
     96 H          -2.0948   -1.7018  -12.0450 H       1  UNL1        0.0778
     97 H          -3.2966   -1.3587  -13.3257 H       1  UNL1        0.0778
     98 H          -3.8769   -1.6338  -11.6725 H       1  UNL1        0.0778
     99 H          -4.1711    2.0079  -11.9433 H       1  UNL1        0.0778
    100 H          -5.0048    0.4847  -11.4889 H       1  UNL1        0.0778
    101 H          -4.6066    0.8071  -13.2035 H       1  UNL1        0.0778
    102 H           2.6419   -7.6253   -9.5628 H       1  UNL1        0.0377
    103 H           3.0534   -6.0125   -8.9750 H       1  UNL1        0.0377
    104 H           2.8745   -5.1125  -11.3254 H       1  UNL1        0.0270
    105 H           2.5699   -6.7436  -11.9107 H       1  UNL1        0.0270
    106 H           4.7898   -7.4839  -10.9859 H       1  UNL1        0.0265
    107 H           5.0877   -5.8390  -10.4191 H       1  UNL1        0.0265
    108 H           4.9853   -4.9962  -12.7723 H       1  UNL1        0.0265
    109 H           4.5917   -6.6154  -13.3404 H       1  UNL1        0.0265
    110 H           6.8999   -6.2837  -13.7882 H       1  UNL1        0.0265
    111 H           6.8053   -7.4498  -12.4726 H       1  UNL1        0.0265
    112 H           7.3168   -5.6133  -10.8278 H       1  UNL1        0.0268
    113 H           7.3684   -4.4501  -12.1533 H       1  UNL1        0.0268
    114 H           9.2178   -6.8744  -11.8032 H       1  UNL1        0.0307
    115 H           9.2409   -5.8008  -13.1968 H       1  UNL1        0.0307
    116 H           9.7262   -4.8996  -10.2677 H       1  UNL1        0.0569
    117 H          11.4312   -3.5203  -11.0762 H       1  UNL1        0.0569
    118 H          11.0388   -3.0561  -13.6200 H       1  UNL1        0.0307
    119 H          10.9878   -4.8023  -13.8615 H       1  UNL1        0.0307
    120 H          13.2935   -4.9863  -12.8413 H       1  UNL1        0.0268
    121 H          13.3412   -3.2281  -12.7026 H       1  UNL1        0.0268
    122 H          12.9974   -3.0640  -15.2110 H       1  UNL1        0.0265
    123 H          13.0688   -4.8253  -15.3033 H       1  UNL1        0.0265
    124 H          15.3794   -4.7597  -14.2895 H       1  UNL1        0.0265
    125 H          15.2922   -2.9973  -14.2485 H       1  UNL1        0.0265
    126 H          15.1417   -4.7414  -16.7591 H       1  UNL1        0.0265
    127 H          14.9872   -2.9828  -16.7571 H       1  UNL1        0.0265
    128 H          17.4475   -4.5337  -15.7796 H       1  UNL1        0.0265
    129 H          17.2641   -2.7835  -15.7305 H       1  UNL1        0.0265
    130 H          18.5907   -3.3086  -17.6487 H       1  UNL1        0.0263
    131 H          17.0323   -2.7357  -18.2333 H       1  UNL1        0.0263
    132 H          17.8492   -5.6858  -18.0121 H       1  UNL1        0.0230
    133 H          17.8701   -4.7202  -19.4965 H       1  UNL1        0.0230
    134 H          16.3314   -5.0821  -18.7082 H       1  UNL1        0.0230
@<TRIPOS>BOND
     1     1     2    1
     2     2     3    1
     3     3     4    1
     4     4     5    1
     5     5     6    1
     6     6     7    1
     7     7     8    1
     8     8     9    1
     9     9    10    1
    10    10    11    1
    11    11    12    1
    12    12    13    1
    13    13    14    1
    14    14    15    1
    15    15    16    1
    16    16    17    2
    17    16    18    1
    18    18    19    1
    19    19    20    1
    20    20    21    1
    21    21    22    1
    22    22    23    1
    23    23    24    2
    24    23    25    1
    25    23    26    1
    26    26    27    1
    27    27    28    1
    28    28    29    1
    29    29    30    1
    30    29    31    1
    31    29    32    1
    32    20    33    1
    33    33    34    1
    34    34    35    2
    35    34    36    1
    36    36    37    1
    37    37    38    1
    38    38    39    1
    39    39    40    1
    40    40    41    1
    41    41    42    1
    42    42    43    1
    43    43    44    2
    44    44    45    1
    45    45    46    1
    46    46    47    1
    47    47    48    1
    48    48    49    1
    49    49    50    1
    50    50    51    1
    51    51    52    1
    52     1    53    1
    53     1    54    1
    54     1    55    1
    55     2    56    1
    56     2    57    1
    57     3    58    1
    58     3    59    1
    59     4    60    1
    60     4    61    1
    61     5    62    1
    62     5    63    1
    63     6    64    1
    64     6    65    1
    65     7    66    1
    66     7    67    1
    67     8    68    1
    68     8    69    1
    69     9    70    1
    70     9    71    1
    71    10    72    1
    72    10    73    1
    73    11    74    1
    74    11    75    1
    75    12    76    1
    76    12    77    1
    77    13    78    1
    78    13    79    1
    79    14    80    1
    80    14    81    1
    81    15    82    1
    82    15    83    1
    83    19    84    1
    84    19    85    1
    85    20    86    1
    86    21    87    1
    87    21    88    1
    88    27    89    1
    89    27    90    1
    90    28    91    1
    91    28    92    1
    92    30    93    1
    93    30    94    1
    94    30    95    1
    95    31    96    1
    96    31    97    1
    97    31    98    1
    98    32    99    1
    99    32   100    1
   100    32   101    1
   101    36   102    1
   102    36   103    1
   103    37   104    1
   104    37   105    1
   105    38   106    1
   106    38   107    1
   107    39   108    1
   108    39   109    1
   109    40   110    1
   110    40   111    1
   111    41   112    1
   112    41   113    1
   113    42   114    1
   114    42   115    1
   115    43   116    1
   116    44   117    1
   117    45   118    1
   118    45   119    1
   119    46   120    1
   120    46   121    1
   121    47   122    1
   122    47   123    1
   123    48   124    1
   124    48   125    1
   125    49   126    1
   126    49   127    1
   127    50   128    1
   128    50   129    1
   129    51   130    1
   130    51   131    1
   131    52   132    1
   132    52   133    1
   133    52   134    1
