@<TRIPOS>MOLECULE
*****
 125 124 0 0 0
SMALL
GASTEIGER

@<TRIPOS>ATOM
      1 C           1.8241    0.2486   -0.0544 C.3     1  UNL1       -0.0653
      2 C           3.2085    0.2395    0.5806 C.3     1  UNL1       -0.0559
      3 C           3.8970    1.5994    0.4474 C.3     1  UNL1       -0.0533
      4 C           5.2675    1.6313    1.1409 C.3     1  UNL1       -0.0531
      5 C           5.9238    3.0091    0.9894 C.3     1  UNL1       -0.0530
      6 C           7.2421    3.1565    1.7717 C.3     1  UNL1       -0.0528
      7 C           7.7824    4.5889    1.6318 C.3     1  UNL1       -0.0496
      8 C           9.0262    4.9087    2.4919 C.3     1  UNL1       -0.0348
      9 C           9.3280    6.3898    2.4338 C.2     1  UNL1       -0.0879
     10 C          10.3794    7.0872    2.9024 C.2     1  UNL1       -0.0879
     11 C          11.6145    6.6251    3.6340 C.3     1  UNL1       -0.0348
     12 C          12.8601    7.4768    3.2706 C.3     1  UNL1       -0.0496
     13 C          13.9948    7.3473    4.3068 C.3     1  UNL1       -0.0528
     14 C          15.3705    7.8651    3.8310 C.3     1  UNL1       -0.0530
     15 C          15.5437    9.3927    3.7233 C.3     1  UNL1       -0.0526
     16 C          15.9553   10.1091    5.0264 C.3     1  UNL1       -0.0430
     17 C          17.4316    9.9441    5.4461 C.3     1  UNL1        0.0450
     18 C          18.3812   11.0276    4.9355 C.2     1  UNL1        0.3075
     19 O          18.1978   11.6920    3.9257 O.2     1  UNL1       -0.2508
     20 O          19.4868   11.1031    5.7444 O.3     1  UNL1       -0.4555
     21 C          20.6438   11.8893    5.2953 C.3     1  UNL1        0.1604
     22 C          21.5569   10.9684    4.4547 C.3     1  UNL1        0.1315
     23 O          20.8739   10.6086    3.2281 O.3     1  UNL1       -0.4608
     24 C          21.4630    9.6455    2.4645 C.2     1  UNL1        0.3072
     25 O          22.5034    9.0686    2.7368 O.2     1  UNL1       -0.2509
     26 C          20.6389    9.3813    1.2144 C.3     1  UNL1        0.0449
     27 C          20.3539    7.8876    1.0222 C.3     1  UNL1       -0.0430
     28 C          21.2510    7.1971   -0.0211 C.3     1  UNL1       -0.0526
     29 C          20.5783    7.0763   -1.3991 C.3     1  UNL1       -0.0530
     30 C          21.3884    6.1926   -2.3612 C.3     1  UNL1       -0.0531
     31 C          20.6075    5.8703   -3.6441 C.3     1  UNL1       -0.0531
     32 C          21.3833    4.9163   -4.5635 C.3     1  UNL1       -0.0531
     33 C          20.5408    4.4679   -5.7652 C.3     1  UNL1       -0.0531
     34 C          21.3223    3.5268   -6.6908 C.3     1  UNL1       -0.0531
     35 C          20.4385    2.9700   -7.8133 C.3     1  UNL1       -0.0531
     36 C          21.2401    2.1011   -8.7889 C.3     1  UNL1       -0.0531
     37 C          20.3345    1.4457   -9.8367 C.3     1  UNL1       -0.0531
     38 C          21.1461    0.6713  -10.8794 C.3     1  UNL1       -0.0533
     39 C          20.2358   -0.0531  -11.8728 C.3     1  UNL1       -0.0559
     40 C          21.0365   -0.7582  -12.9571 C.3     1  UNL1       -0.0653
     41 C          21.3701   12.4727    6.5455 C.3     1  UNL1        0.0951
     42 O          22.6800   12.9284    6.2411 O.3     1  UNL1       -0.3236
     43 P          23.2567   14.3940    6.9569 P.3     1  UNL1        0.2128
     44 O          23.7796   13.6163    8.1710 O.2     1  UNL1       -0.5172
     45 O          24.1872   14.6072    5.7514 O.co2   1  UNL1       -0.4373
     46 O          23.8334   15.8597    7.6727 O.3     1  UNL1       -0.3221
     47 C          25.2237   16.1130    7.5681 C.3     1  UNL1        0.0945
     48 C          26.1180   14.8877    7.7932 C.3     1  UNL1       -0.0110
     49 N          27.5188   15.2272    7.4097 N.4     1  UNL1        0.2202
     50 H          27.8808   16.0152    7.9506 H       1  UNL1        0.1995
     51 H          28.1080   14.4009    7.5456 H       1  UNL1        0.1995
     52 H          27.5167   15.4530    6.4067 H       1  UNL1        0.1995
     53 H           1.1731    0.9822    0.4325 H       1  UNL1        0.0230
     54 H           1.3538   -0.7354    0.0424 H       1  UNL1        0.0230
     55 H           1.8796    0.4939   -1.1199 H       1  UNL1        0.0230
     56 H           3.1124   -0.0299    1.6386 H       1  UNL1        0.0263
     57 H           3.8179   -0.5348    0.1009 H       1  UNL1        0.0263
     58 H           3.2525    2.3736    0.8823 H       1  UNL1        0.0265
     59 H           4.0167    1.8428   -0.6155 H       1  UNL1        0.0265
     60 H           5.1410    1.3960    2.2042 H       1  UNL1        0.0265
     61 H           5.9187    0.8614    0.7107 H       1  UNL1        0.0265
     62 H           5.2177    3.7752    1.3339 H       1  UNL1        0.0265
     63 H           6.1088    3.2037   -0.0745 H       1  UNL1        0.0265
     64 H           7.9805    2.4374    1.3992 H       1  UNL1        0.0265
     65 H           7.0643    2.9301    2.8293 H       1  UNL1        0.0265
     66 H           6.9748    5.2823    1.9028 H       1  UNL1        0.0268
     67 H           8.0165    4.7794    0.5762 H       1  UNL1        0.0268
     68 H           9.8820    4.3272    2.1334 H       1  UNL1        0.0307
     69 H           8.8242    4.6260    3.5313 H       1  UNL1        0.0307
     70 H           8.5441    6.9927    1.9708 H       1  UNL1        0.0569
     71 H          10.3180    8.1694    2.7744 H       1  UNL1        0.0569
     72 H          11.4198    6.7187    4.7089 H       1  UNL1        0.0307
     73 H          11.8183    5.5687    3.4251 H       1  UNL1        0.0307
     74 H          12.5840    8.5352    3.1917 H       1  UNL1        0.0268
     75 H          13.2174    7.1668    2.2809 H       1  UNL1        0.0268
     76 H          14.1114    6.2841    4.5525 H       1  UNL1        0.0265
     77 H          13.7047    7.8545    5.2343 H       1  UNL1        0.0265
     78 H          15.5689    7.4280    2.8442 H       1  UNL1        0.0265
     79 H          16.1386    7.4626    4.5013 H       1  UNL1        0.0265
     80 H          14.6091    9.8343    3.3583 H       1  UNL1        0.0265
     81 H          16.3035    9.6049    2.9611 H       1  UNL1        0.0265
     82 H          15.3151    9.7398    5.8367 H       1  UNL1        0.0270
     83 H          15.7325   11.1777    4.9161 H       1  UNL1        0.0270
     84 H          17.8272    8.9714    5.1388 H       1  UNL1        0.0377
     85 H          17.4623    9.9937    6.5417 H       1  UNL1        0.0377
     86 H          20.2997   12.7224    4.6699 H       1  UNL1        0.0792
     87 H          21.7793   10.0539    5.0166 H       1  UNL1        0.0736
     88 H          22.4860   11.4783    4.1810 H       1  UNL1        0.0736
     89 H          21.1492    9.8271    0.3547 H       1  UNL1        0.0377
     90 H          19.6788    9.9008    1.3242 H       1  UNL1        0.0377
     91 H          19.3021    7.7608    0.7374 H       1  UNL1        0.0270
     92 H          20.4719    7.3654    1.9800 H       1  UNL1        0.0270
     93 H          21.4642    6.1834    0.3414 H       1  UNL1        0.0265
     94 H          22.2171    7.7071   -0.1112 H       1  UNL1        0.0265
     95 H          19.5807    6.6378   -1.2732 H       1  UNL1        0.0265
     96 H          20.4406    8.0723   -1.8358 H       1  UNL1        0.0265
     97 H          21.6466    5.2520   -1.8594 H       1  UNL1        0.0265
     98 H          22.3309    6.6921   -2.6146 H       1  UNL1        0.0265
     99 H          20.3827    6.7982   -4.1833 H       1  UNL1        0.0265
    100 H          19.6477    5.4116   -3.3767 H       1  UNL1        0.0265
    101 H          22.2973    5.4096   -4.9150 H       1  UNL1        0.0265
    102 H          21.6924    4.0309   -3.9946 H       1  UNL1        0.0265
    103 H          20.2111    5.3460   -6.3336 H       1  UNL1        0.0265
    104 H          19.6383    3.9591   -5.4048 H       1  UNL1        0.0265
    105 H          21.7306    2.6918   -6.1084 H       1  UNL1        0.0265
    106 H          22.1738    4.0661   -7.1228 H       1  UNL1        0.0265
    107 H          19.6265    2.3773   -7.3748 H       1  UNL1        0.0265
    108 H          19.9738    3.7971   -8.3635 H       1  UNL1        0.0265
    109 H          21.7760    1.3200   -8.2359 H       1  UNL1        0.0265
    110 H          21.9958    2.7195   -9.2883 H       1  UNL1        0.0265
    111 H          19.7354    2.2135  -10.3411 H       1  UNL1        0.0265
    112 H          19.6336    0.7662   -9.3365 H       1  UNL1        0.0265
    113 H          21.8010    1.3660  -11.4194 H       1  UNL1        0.0265
    114 H          21.7931   -0.0592  -10.3788 H       1  UNL1        0.0265
    115 H          19.5491    0.6606  -12.3424 H       1  UNL1        0.0263
    116 H          19.6232   -0.7914  -11.3421 H       1  UNL1        0.0263
    117 H          21.6173   -0.0398  -13.5446 H       1  UNL1        0.0230
    118 H          20.3652   -1.2889  -13.6398 H       1  UNL1        0.0230
    119 H          21.7281   -1.4885  -12.5252 H       1  UNL1        0.0230
    120 H          21.4484   11.7042    7.3221 H       1  UNL1        0.0602
    121 H          20.7713   13.2891    6.9647 H       1  UNL1        0.0602
    122 H          25.4173   16.5731    6.5917 H       1  UNL1        0.0618
    123 H          25.4690   16.8766    8.3150 H       1  UNL1        0.0618
    124 H          25.8922   14.0074    7.1934 H       1  UNL1        0.0836
    125 H          26.1380   14.5997    8.8485 H       1  UNL1        0.0836
@<TRIPOS>BOND
     1     1     2    1
     2     2     3    1
     3     3     4    1
     4     4     5    1
     5     5     6    1
     6     6     7    1
     7     7     8    1
     8     8     9    1
     9     9    10    2
    10    10    11    1
    11    11    12    1
    12    12    13    1
    13    13    14    1
    14    14    15    1
    15    15    16    1
    16    16    17    1
    17    17    18    1
    18    18    19    2
    19    18    20    1
    20    20    21    1
    21    21    22    1
    22    22    23    1
    23    23    24    1
    24    24    25    2
    25    24    26    1
    26    26    27    1
    27    27    28    1
    28    28    29    1
    29    29    30    1
    30    30    31    1
    31    31    32    1
    32    32    33    1
    33    33    34    1
    34    34    35    1
    35    35    36    1
    36    36    37    1
    37    37    38    1
    38    38    39    1
    39    39    40    1
    40    21    41    1
    41    41    42    1
    42    42    43    1
    43    43    44    2
    44    43    45    1
    45    43    46    1
    46    46    47    1
    47    47    48    1
    48    48    49    1
    49    49    50    1
    50    49    51    1
    51    49    52    1
    52     1    53    1
    53     1    54    1
    54     1    55    1
    55     2    56    1
    56     2    57    1
    57     3    58    1
    58     3    59    1
    59     4    60    1
    60     4    61    1
    61     5    62    1
    62     5    63    1
    63     6    64    1
    64     6    65    1
    65     7    66    1
    66     7    67    1
    67     8    68    1
    68     8    69    1
    69     9    70    1
    70    10    71    1
    71    11    72    1
    72    11    73    1
    73    12    74    1
    74    12    75    1
    75    13    76    1
    76    13    77    1
    77    14    78    1
    78    14    79    1
    79    15    80    1
    80    15    81    1
    81    16    82    1
    82    16    83    1
    83    17    84    1
    84    17    85    1
    85    21    86    1
    86    22    87    1
    87    22    88    1
    88    26    89    1
    89    26    90    1
    90    27    91    1
    91    27    92    1
    92    28    93    1
    93    28    94    1
    94    29    95    1
    95    29    96    1
    96    30    97    1
    97    30    98    1
    98    31    99    1
    99    31   100    1
   100    32   101    1
   101    32   102    1
   102    33   103    1
   103    33   104    1
   104    34   105    1
   105    34   106    1
   106    35   107    1
   107    35   108    1
   108    36   109    1
   109    36   110    1
   110    37   111    1
   111    37   112    1
   112    38   113    1
   113    38   114    1
   114    39   115    1
   115    39   116    1
   116    40   117    1
   117    40   118    1
   118    40   119    1
   119    41   120    1
   120    41   121    1
   121    47   122    1
   122    47   123    1
   123    48   124    1
   124    48   125    1
