@<TRIPOS>MOLECULE
*****
 127 126 0 0 0
SMALL
GASTEIGER

@<TRIPOS>ATOM
      1 C           2.2148    0.1234    0.0883 C.3     1  UNL1       -0.0653
      2 C           3.5465    0.3631    0.7855 C.3     1  UNL1       -0.0559
      3 C           4.1430    1.7171    0.4005 C.3     1  UNL1       -0.0533
      4 C           5.4789    1.9802    1.1064 C.3     1  UNL1       -0.0531
      5 C           6.0349    3.3534    0.7201 C.3     1  UNL1       -0.0530
      6 C           7.3695    3.6776    1.4071 C.3     1  UNL1       -0.0528
      7 C           7.8320    5.0866    1.0183 C.3     1  UNL1       -0.0496
      8 C           9.1869    5.4941    1.6240 C.3     1  UNL1       -0.0348
      9 C           9.5193    6.9119    1.2326 C.2     1  UNL1       -0.0879
     10 C          10.5005    7.7019    1.6998 C.2     1  UNL1       -0.0879
     11 C          11.5830    7.3839    2.6971 C.3     1  UNL1       -0.0348
     12 C          12.9345    7.9664    2.2376 C.3     1  UNL1       -0.0496
     13 C          14.0235    7.8639    3.3162 C.3     1  UNL1       -0.0528
     14 C          15.4178    8.2968    2.8243 C.3     1  UNL1       -0.0530
     15 C          15.6000    9.8034    2.5762 C.3     1  UNL1       -0.0526
     16 C          15.8576   10.6390    3.8418 C.3     1  UNL1       -0.0430
     17 C          17.3065   10.6003    4.3546 C.3     1  UNL1        0.0450
     18 C          18.2500   11.5329    3.6090 C.2     1  UNL1        0.3075
     19 O          18.0437   11.9732    2.4880 O.2     1  UNL1       -0.2508
     20 O          19.3722   11.7431    4.3603 O.3     1  UNL1       -0.4555
     21 C          20.4767   12.4637    3.7351 C.3     1  UNL1        0.1604
     22 C          21.4180   11.4524    3.0563 C.3     1  UNL1        0.1315
     23 O          20.6681   10.5792    2.1868 O.3     1  UNL1       -0.4608
     24 C          21.4100    9.7943    1.3634 C.2     1  UNL1        0.3072
     25 O          22.6297    9.8115    1.2705 O.2     1  UNL1       -0.2509
     26 C          20.5138    8.8043    0.6546 C.3     1  UNL1        0.0449
     27 C          20.9655    8.5309   -0.7798 C.3     1  UNL1       -0.0430
     28 C          20.4353    7.1843   -1.2791 C.3     1  UNL1       -0.0526
     29 C          20.7903    6.9439   -2.7482 C.3     1  UNL1       -0.0530
     30 C          20.4712    5.5069   -3.1685 C.3     1  UNL1       -0.0531
     31 C          20.7467    5.2823   -4.6567 C.3     1  UNL1       -0.0531
     32 C          20.5558    3.8140   -5.0444 C.3     1  UNL1       -0.0531
     33 C          20.7599    3.6028   -6.5459 C.3     1  UNL1       -0.0531
     34 C          20.6365    2.1257   -6.9264 C.3     1  UNL1       -0.0531
     35 C          20.7779    1.9285   -8.4370 C.3     1  UNL1       -0.0531
     36 C          20.6913    0.4499   -8.8207 C.3     1  UNL1       -0.0531
     37 C          20.7830    0.2645  -10.3367 C.3     1  UNL1       -0.0531
     38 C          20.7208   -1.2138  -10.7250 C.3     1  UNL1       -0.0533
     39 C          20.7825   -1.3919  -12.2421 C.3     1  UNL1       -0.0559
     40 C          20.7358   -2.8600  -12.6346 C.3     1  UNL1       -0.0653
     41 C          21.2227   13.2623    4.8222 C.3     1  UNL1        0.0951
     42 O          22.5154   13.6609    4.3730 O.3     1  UNL1       -0.3236
     43 P          23.0920   15.2151    4.8679 P.3     1  UNL1        0.2128
     44 O          22.0173   15.8932    4.0067 O.2     1  UNL1       -0.5172
     45 O          22.8396   14.8625    6.3368 O.co2   1  UNL1       -0.4373
     46 O          23.6687   16.7692    5.3627 O.3     1  UNL1       -0.3248
     47 C          24.3837   17.4711    4.3544 C.3     1  UNL1        0.0829
     48 C          24.2826   18.9602    4.6734 C.3     1  UNL1        0.1018
     49 O          24.8755   19.1793    5.9698 O.3     1  UNL1       -0.3872
     50 C          22.8199   19.4240    4.6945 C.3     1  UNL1        0.0723
     51 O          22.7539   20.8566    4.7154 O.3     1  UNL1       -0.3924
     52 H           1.4852    0.8937    0.3587 H       1  UNL1        0.0230
     53 H           1.8033   -0.8488    0.3776 H       1  UNL1        0.0230
     54 H           2.3335    0.1309   -1.0001 H       1  UNL1        0.0230
     55 H           3.3959    0.3166    1.8701 H       1  UNL1        0.0263
     56 H           4.2418   -0.4408    0.5180 H       1  UNL1        0.0263
     57 H           3.4318    2.5125    0.6556 H       1  UNL1        0.0265
     58 H           4.2897    1.7548   -0.6861 H       1  UNL1        0.0265
     59 H           5.3364    1.9323    2.1925 H       1  UNL1        0.0265
     60 H           6.1990    1.1987    0.8364 H       1  UNL1        0.0265
     61 H           5.2978    4.1238    0.9789 H       1  UNL1        0.0265
     62 H           6.1697    3.3944   -0.3681 H       1  UNL1        0.0265
     63 H           8.1255    2.9403    1.1135 H       1  UNL1        0.0265
     64 H           7.2521    3.6141    2.4952 H       1  UNL1        0.0265
     65 H           7.0636    5.8073    1.3285 H       1  UNL1        0.0268
     66 H           7.8969    5.1479   -0.0763 H       1  UNL1        0.0268
     67 H           9.9665    4.8182    1.2556 H       1  UNL1        0.0307
     68 H           9.1407    5.4090    2.7156 H       1  UNL1        0.0307
     69 H           8.8577    7.3621    0.4910 H       1  UNL1        0.0569
     70 H          10.5270    8.7209    1.3105 H       1  UNL1        0.0569
     71 H          11.3048    7.8296    3.6592 H       1  UNL1        0.0307
     72 H          11.6767    6.3024    2.8465 H       1  UNL1        0.0307
     73 H          12.8023    9.0195    1.9629 H       1  UNL1        0.0268
     74 H          13.2612    7.4398    1.3320 H       1  UNL1        0.0268
     75 H          14.0906    6.8181    3.6415 H       1  UNL1        0.0265
     76 H          13.7341    8.4504    4.1952 H       1  UNL1        0.0265
     77 H          15.6294    7.7658    1.8874 H       1  UNL1        0.0265
     78 H          16.1675    7.9533    3.5461 H       1  UNL1        0.0265
     79 H          14.7135   10.2001    2.0697 H       1  UNL1        0.0265
     80 H          16.4341    9.9417    1.8786 H       1  UNL1        0.0265
     81 H          15.1888   10.2980    4.6405 H       1  UNL1        0.0270
     82 H          15.5851   11.6806    3.6304 H       1  UNL1        0.0270
     83 H          17.7154    9.5861    4.3109 H       1  UNL1        0.0377
     84 H          17.2957   10.9237    5.4025 H       1  UNL1        0.0377
     85 H          20.0919   13.1591    2.9790 H       1  UNL1        0.0792
     86 H          21.8961   10.8213    3.8147 H       1  UNL1        0.0736
     87 H          22.1858   11.9800    2.4788 H       1  UNL1        0.0736
     88 H          19.4840    9.1806    0.6389 H       1  UNL1        0.0377
     89 H          20.5236    7.8874    1.2551 H       1  UNL1        0.0377
     90 H          22.0596    8.5288   -0.8515 H       1  UNL1        0.0270
     91 H          20.6120    9.3416   -1.4289 H       1  UNL1        0.0270
     92 H          19.3464    7.1410   -1.1557 H       1  UNL1        0.0265
     93 H          20.8618    6.3836   -0.6621 H       1  UNL1        0.0265
     94 H          21.8575    7.1379   -2.9103 H       1  UNL1        0.0265
     95 H          20.2341    7.6501   -3.3765 H       1  UNL1        0.0265
     96 H          21.0785    4.8138   -2.5734 H       1  UNL1        0.0265
     97 H          19.4197    5.2809   -2.9535 H       1  UNL1        0.0265
     98 H          21.7722    5.5900   -4.8946 H       1  UNL1        0.0265
     99 H          20.0738    5.9133   -5.2500 H       1  UNL1        0.0265
    100 H          19.5485    3.4843   -4.7624 H       1  UNL1        0.0265
    101 H          21.2673    3.1942   -4.4850 H       1  UNL1        0.0265
    102 H          20.0171    4.1896   -7.1000 H       1  UNL1        0.0265
    103 H          21.7493    3.9736   -6.8401 H       1  UNL1        0.0265
    104 H          19.6648    1.7390   -6.5963 H       1  UNL1        0.0265
    105 H          21.4091    1.5477   -6.4048 H       1  UNL1        0.0265
    106 H          21.7380    2.3378   -8.7741 H       1  UNL1        0.0265
    107 H          19.9888    2.4889   -8.9531 H       1  UNL1        0.0265
    108 H          21.5019   -0.1038   -8.3315 H       1  UNL1        0.0265
    109 H          19.7461    0.0290   -8.4569 H       1  UNL1        0.0265
    110 H          21.7195    0.7008  -10.7050 H       1  UNL1        0.0265
    111 H          19.9616    0.8063  -10.8214 H       1  UNL1        0.0265
    112 H          21.5545   -1.7514  -10.2570 H       1  UNL1        0.0265
    113 H          19.7941   -1.6572  -10.3410 H       1  UNL1        0.0265
    114 H          21.7037   -0.9445  -12.6333 H       1  UNL1        0.0263
    115 H          19.9423   -0.8676  -12.7123 H       1  UNL1        0.0263
    116 H          21.5852   -3.4060  -12.2119 H       1  UNL1        0.0230
    117 H          20.7744   -2.9624  -13.7236 H       1  UNL1        0.0230
    118 H          19.8133   -3.3318  -12.2815 H       1  UNL1        0.0230
    119 H          21.3538   12.6393    5.7145 H       1  UNL1        0.0602
    120 H          20.6108   14.1195    5.1247 H       1  UNL1        0.0602
    121 H          23.9874   17.2602    3.3564 H       1  UNL1        0.0591
    122 H          25.4255   17.1384    4.3987 H       1  UNL1        0.0591
    123 H          24.8608   19.5487    3.9538 H       1  UNL1        0.0639
    124 H          24.4674   18.4881    6.5336 H       1  UNL1        0.2100
    125 H          22.2861   19.0862    3.8011 H       1  UNL1        0.0583
    126 H          22.3047   19.0595    5.5896 H       1  UNL1        0.0583
    127 H          21.8346   21.0690    4.9471 H       1  UNL1        0.2095
@<TRIPOS>BOND
     1     1     2    1
     2     2     3    1
     3     3     4    1
     4     4     5    1
     5     5     6    1
     6     6     7    1
     7     7     8    1
     8     8     9    1
     9     9    10    2
    10    10    11    1
    11    11    12    1
    12    12    13    1
    13    13    14    1
    14    14    15    1
    15    15    16    1
    16    16    17    1
    17    17    18    1
    18    18    19    2
    19    18    20    1
    20    20    21    1
    21    21    22    1
    22    22    23    1
    23    23    24    1
    24    24    25    2
    25    24    26    1
    26    26    27    1
    27    27    28    1
    28    28    29    1
    29    29    30    1
    30    30    31    1
    31    31    32    1
    32    32    33    1
    33    33    34    1
    34    34    35    1
    35    35    36    1
    36    36    37    1
    37    37    38    1
    38    38    39    1
    39    39    40    1
    40    21    41    1
    41    41    42    1
    42    42    43    1
    43    43    44    2
    44    43    45    1
    45    43    46    1
    46    46    47    1
    47    47    48    1
    48    48    49    1
    49    48    50    1
    50    50    51    1
    51     1    52    1
    52     1    53    1
    53     1    54    1
    54     2    55    1
    55     2    56    1
    56     3    57    1
    57     3    58    1
    58     4    59    1
    59     4    60    1
    60     5    61    1
    61     5    62    1
    62     6    63    1
    63     6    64    1
    64     7    65    1
    65     7    66    1
    66     8    67    1
    67     8    68    1
    68     9    69    1
    69    10    70    1
    70    11    71    1
    71    11    72    1
    72    12    73    1
    73    12    74    1
    74    13    75    1
    75    13    76    1
    76    14    77    1
    77    14    78    1
    78    15    79    1
    79    15    80    1
    80    16    81    1
    81    16    82    1
    82    17    83    1
    83    17    84    1
    84    21    85    1
    85    22    86    1
    86    22    87    1
    87    26    88    1
    88    26    89    1
    89    27    90    1
    90    27    91    1
    91    28    92    1
    92    28    93    1
    93    29    94    1
    94    29    95    1
    95    30    96    1
    96    30    97    1
    97    31    98    1
    98    31    99    1
    99    32   100    1
   100    32   101    1
   101    33   102    1
   102    33   103    1
   103    34   104    1
   104    34   105    1
   105    35   106    1
   106    35   107    1
   107    36   108    1
   108    36   109    1
   109    37   110    1
   110    37   111    1
   111    38   112    1
   112    38   113    1
   113    39   114    1
   114    39   115    1
   115    40   116    1
   116    40   117    1
   117    40   118    1
   118    41   119    1
   119    41   120    1
   120    47   121    1
   121    47   122    1
   122    48   123    1
   123    49   124    1
   124    50   125    1
   125    50   126    1
   126    51   127    1
