@<TRIPOS>MOLECULE
*****
 66 67 0 0 0
SMALL
GASTEIGER

@<TRIPOS>ATOM
      1 C           7.6012   -6.1903   -5.6824 C.3     1  UNL1       -0.0645
      2 C           8.2020   -5.1282   -4.7656 C.3     1  UNL1       -0.0432
      3 C           7.2169   -4.4877   -3.7658 C.3     1  UNL1        0.0534
      4 H           7.7768   -3.7373   -3.1971 H       1  UNL1        0.0410
      5 C           6.6629   -5.5269   -2.7891 C.3     1  UNL1       -0.0523
      6 C           6.0968   -3.7543   -4.4914 C.2     1  UNL1        0.3102
      7 O           6.1100   -3.4832   -5.6847 O.2     1  UNL1       -0.2505
      8 O           5.0694   -3.4427   -3.6490 O.3     1  UNL1       -0.4604
      9 C           3.7669   -3.4072   -4.2569 C.3     1  UNL1        0.1127
     10 H           3.7072   -4.3271   -4.8597 H       1  UNL1        0.0741
     11 C           2.6964   -3.5491   -3.1721 C.3     1  UNL1        0.0146
     12 C           1.3318   -3.8333   -3.8050 C.3     1  UNL1        0.0773
     13 H           0.5537   -3.6297   -3.0615 H       1  UNL1        0.0639
     14 C           1.0639   -3.0267   -5.0414 C.2     1  UNL1       -0.0522
     15 C           1.9946   -2.2714   -5.6500 C.2     1  UNL1       -0.0423
     16 C           3.4593   -2.2236   -5.2039 C.3     1  UNL1        0.0245
     17 H           4.0607   -2.4320   -6.0963 H       1  UNL1        0.0388
     18 C           3.7165   -0.7371   -4.8139 C.3     1  UNL1       -0.0247
     19 H           2.8749   -0.4057   -4.1848 H       1  UNL1        0.0313
     20 C           3.6190    0.1097   -6.1420 C.3     1  UNL1       -0.0219
     21 H           3.4786    1.1590   -5.8498 H       1  UNL1        0.0343
     22 C           2.4114   -0.2854   -6.9774 C.2     1  UNL1       -0.0806
     23 C           1.6594   -1.3708   -6.7336 C.2     1  UNL1       -0.0621
     24 C           4.8765    0.0418   -7.0222 C.3     1  UNL1       -0.0587
     25 C           4.9974   -0.3986   -4.0287 C.3     1  UNL1       -0.0467
     26 C           4.8090   -0.4978   -2.5084 C.3     1  UNL1       -0.0265
     27 C           6.0590   -0.1328   -1.6964 C.3     1  UNL1        0.0576
     28 H           6.3555    0.8898   -1.9525 H       1  UNL1        0.0594
     29 C           7.2065   -1.1181   -1.9280 C.3     1  UNL1       -0.0002
     30 C           8.4802   -0.8792   -1.1068 C.3     1  UNL1        0.0676
     31 H           8.2702   -1.0343   -0.0426 H       1  UNL1        0.0599
     32 C           9.1426    0.4748   -1.3720 C.3     1  UNL1        0.0708
     33 C           8.6007    1.5638   -0.4828 C.2     1  UNL1        0.3072
     34 O           7.8040    1.3935    0.4254 O.2     1  UNL1       -0.2509
     35 O           9.0793    2.7860   -0.8034 O.3     1  UNL1       -0.4806
     36 O           9.4116   -1.8995   -1.5037 O.3     1  UNL1       -0.3912
     37 O           5.6818   -0.1623   -0.3209 O.3     1  UNL1       -0.3917
     38 O           1.2366   -5.2133   -4.1405 O.3     1  UNL1       -0.3876
     39 H           8.3835   -6.6165   -6.3189 H       1  UNL1        0.0230
     40 H           6.8383   -5.7724   -6.3454 H       1  UNL1        0.0230
     41 H           7.1496   -7.0090   -5.1158 H       1  UNL1        0.0230
     42 H           8.6468   -4.3426   -5.3893 H       1  UNL1        0.0270
     43 H           9.0292   -5.5831   -4.2066 H       1  UNL1        0.0270
     44 H           6.1696   -5.0384   -1.9413 H       1  UNL1        0.0238
     45 H           7.4616   -6.1570   -2.3846 H       1  UNL1        0.0238
     46 H           5.9184   -6.1731   -3.2666 H       1  UNL1        0.0238
     47 H           2.6421   -2.6290   -2.5795 H       1  UNL1        0.0329
     48 H           2.9759   -4.3516   -2.4782 H       1  UNL1        0.0329
     49 H           0.0331   -3.0198   -5.3878 H       1  UNL1        0.0600
     50 H           2.1367    0.3758   -7.7959 H       1  UNL1        0.0575
     51 H           0.7668   -1.5638   -7.3225 H       1  UNL1        0.0617
     52 H           5.7548    0.4329   -6.5001 H       1  UNL1        0.0235
     53 H           4.7496    0.6455   -7.9285 H       1  UNL1        0.0235
     54 H           5.1058   -0.9794   -7.3429 H       1  UNL1        0.0235
     55 H           5.2807    0.6421   -4.2342 H       1  UNL1        0.0269
     56 H           5.8257   -1.0156   -4.3811 H       1  UNL1        0.0269
     57 H           4.4766   -1.4936   -2.2098 H       1  UNL1        0.0290
     58 H           3.9957    0.1761   -2.2055 H       1  UNL1        0.0290
     59 H           7.4811   -1.1425   -2.9888 H       1  UNL1        0.0315
     60 H           6.8537   -2.1301   -1.6877 H       1  UNL1        0.0315
     61 H           9.0038    0.7626   -2.4205 H       1  UNL1        0.0403
     62 H          10.2205    0.4057   -1.1844 H       1  UNL1        0.0403
     63 H           9.7016    2.7914   -1.5560 H       1  UNL1        0.2951
     64 H          10.0100   -2.0575   -0.7519 H       1  UNL1        0.2098
     65 H           6.2819    0.4363    0.1744 H       1  UNL1        0.2098
     66 H           1.5938   -5.3309   -5.0372 H       1  UNL1        0.2102
@<TRIPOS>BOND
     1     1     2    1
     2     3     5    1
     3     3     6    1
     4     6     7    2
     5     6     8    1
     6     9    11    1
     7    11    12    1
     8    12    14    1
     9    14    15    2
    10    15    16    1
    11    16    17    1
    12     9    16    1
    13    16    18    1
    14    18    19    1
    15    18    20    1
    16    20    21    1
    17    20    22    1
    18    22    23    2
    19    15    23    1
    20    20    24    1
    21    18    25    1
    22    25    26    1
    23    27    29    1
    24    30    32    1
    25    32    33    1
    26    33    34    2
    27    33    35    1
    28    30    36    1
    29    27    37    1
    30    12    38    1
    31    12    13    1
    32     3     4    1
    33     3     2    1
    34     9    10    1
    35     9     8    1
    36    27    28    1
    37    27    26    1
    38    30    31    1
    39    30    29    1
    40     1    39    1
    41     1    40    1
    42     1    41    1
    43     2    42    1
    44     2    43    1
    45     5    44    1
    46     5    45    1
    47     5    46    1
    48    11    47    1
    49    11    48    1
    50    14    49    1
    51    22    50    1
    52    23    51    1
    53    24    52    1
    54    24    53    1
    55    24    54    1
    56    25    55    1
    57    25    56    1
    58    26    57    1
    59    26    58    1
    60    29    59    1
    61    29    60    1
    62    32    61    1
    63    32    62    1
    64    35    63    1
    65    36    64    1
    66    37    65    1
    67    38    66    1
