@<TRIPOS>MOLECULE
*****
 54 54 0 0 0
SMALL
GASTEIGER

@<TRIPOS>ATOM
      1 C           1.1384   -0.0448   -0.3629 C.3     1  UNL1       -0.0653
      2 C           2.3866    0.2695    0.4463 C.3     1  UNL1       -0.0559
      3 C           3.2320   -0.9821    0.6813 C.3     1  UNL1       -0.0533
      4 C           4.4495   -0.6748    1.5546 C.3     1  UNL1       -0.0531
      5 C           5.3255   -1.9142    1.7464 C.3     1  UNL1       -0.0531
      6 C           6.4697   -1.6399    2.7237 C.3     1  UNL1       -0.0531
      7 C           7.3870   -2.8559    2.8658 C.3     1  UNL1       -0.0531
      8 C           8.4306   -2.6380    3.9627 C.3     1  UNL1       -0.0531
      9 C           9.3917   -3.8237    4.0651 C.3     1  UNL1       -0.0529
     10 C          10.3263   -3.6760    5.2672 C.3     1  UNL1       -0.0483
     11 C          11.3300   -4.8319    5.3460 C.3     1  UNL1       -0.0125
     12 C          12.1442   -4.7431    6.6381 C.3     1  UNL1       -0.0303
     13 N          13.3309   -5.7135    6.7297 N.4     1  UNL1        0.2412
     14 C          13.8285   -5.6702    8.1855 C.3     1  UNL1       -0.0413
     15 C          14.4768   -5.3393    5.7888 C.3     1  UNL1       -0.0302
     16 C          15.2681   -6.6258    5.5948 C.3     1  UNL1       -0.0077
     17 C          14.3684   -7.7718    6.0390 C.3     1  UNL1       -0.0077
     18 C          13.0126   -7.1526    6.3304 C.3     1  UNL1       -0.0302
     19 H           0.5585    0.8674   -0.5347 H       1  UNL1        0.0230
     20 H           0.4987   -0.7584    0.1663 H       1  UNL1        0.0230
     21 H           1.3978   -0.4719   -1.3367 H       1  UNL1        0.0230
     22 H           2.0904    0.7074    1.4066 H       1  UNL1        0.0263
     23 H           2.9801    1.0228   -0.0847 H       1  UNL1        0.0263
     24 H           2.6211   -1.7531    1.1667 H       1  UNL1        0.0265
     25 H           3.5601   -1.3895   -0.2827 H       1  UNL1        0.0265
     26 H           4.1123   -0.3051    2.5306 H       1  UNL1        0.0265
     27 H           5.0441    0.1238    1.0944 H       1  UNL1        0.0265
     28 H           5.7308   -2.2293    0.7773 H       1  UNL1        0.0265
     29 H           4.7152   -2.7426    2.1265 H       1  UNL1        0.0265
     30 H           7.0560   -0.7796    2.3788 H       1  UNL1        0.0265
     31 H           6.0525   -1.3746    3.7029 H       1  UNL1        0.0265
     32 H           7.8863   -3.0508    1.9090 H       1  UNL1        0.0265
     33 H           6.7899   -3.7440    3.1059 H       1  UNL1        0.0265
     34 H           9.0003   -1.7232    3.7587 H       1  UNL1        0.0265
     35 H           7.9197   -2.4927    4.9225 H       1  UNL1        0.0265
     36 H           9.9796   -3.8985    3.1424 H       1  UNL1        0.0265
     37 H           8.8214   -4.7556    4.1619 H       1  UNL1        0.0265
     38 H          10.8695   -2.7254    5.2004 H       1  UNL1        0.0267
     39 H           9.7296   -3.6435    6.1871 H       1  UNL1        0.0267
     40 H          11.9705   -4.8045    4.4597 H       1  UNL1        0.0317
     41 H          10.7736   -5.7757    5.3223 H       1  UNL1        0.0317
     42 H          11.4897   -4.9625    7.4904 H       1  UNL1        0.0815
     43 H          12.5600   -3.7370    6.7704 H       1  UNL1        0.0815
     44 H          14.0660   -4.6311    8.4332 H       1  UNL1        0.0778
     45 H          14.7207   -6.2926    8.2871 H       1  UNL1        0.0778
     46 H          13.0290   -6.0459    8.8308 H       1  UNL1        0.0778
     47 H          15.0594   -4.5248    6.2299 H       1  UNL1        0.0815
     48 H          14.0506   -5.0099    4.8375 H       1  UNL1        0.0815
     49 H          16.1846   -6.6106    6.1958 H       1  UNL1        0.0319
     50 H          15.5755   -6.7368    4.5495 H       1  UNL1        0.0319
     51 H          14.7765   -8.2432    6.9407 H       1  UNL1        0.0319
     52 H          14.2965   -8.5539    5.2764 H       1  UNL1        0.0319
     53 H          12.4561   -7.6436    7.1333 H       1  UNL1        0.0815
     54 H          12.4195   -7.1392    5.4122 H       1  UNL1        0.0815
@<TRIPOS>BOND
     1     1     2    1
     2     2     3    1
     3     3     4    1
     4     4     5    1
     5     5     6    1
     6     6     7    1
     7     7     8    1
     8     8     9    1
     9     9    10    1
    10    10    11    1
    11    11    12    1
    12    12    13    1
    13    13    14    1
    14    13    15    1
    15    15    16    1
    16    16    17    1
    17    17    18    1
    18    13    18    1
    19     1    19    1
    20     1    20    1
    21     1    21    1
    22     2    22    1
    23     2    23    1
    24     3    24    1
    25     3    25    1
    26     4    26    1
    27     4    27    1
    28     5    28    1
    29     5    29    1
    30     6    30    1
    31     6    31    1
    32     7    32    1
    33     7    33    1
    34     8    34    1
    35     8    35    1
    36     9    36    1
    37     9    37    1
    38    10    38    1
    39    10    39    1
    40    11    40    1
    41    11    41    1
    42    12    42    1
    43    12    43    1
    44    14    44    1
    45    14    45    1
    46    14    46    1
    47    15    47    1
    48    15    48    1
    49    16    49    1
    50    16    50    1
    51    17    51    1
    52    17    52    1
    53    18    53    1
    54    18    54    1
