@<TRIPOS>MOLECULE
*****
 48 50 0 0 0
SMALL
GASTEIGER

@<TRIPOS>ATOM
      1 C           1.7988   -0.9663    0.1286 C.3     1  UNL1        0.0004
      2 N           3.1683   -0.5833   -0.0863 N.am    1  UNL1       -0.3132
      3 C           3.5788    0.7306   -0.1451 C.2     1  UNL1        0.2623
      4 O           2.8494    1.6920    0.0726 O.2     1  UNL1       -0.2685
      5 C           5.0160    0.9132   -0.5331 C.ar    1  UNL1        0.1288
      6 C           5.5290    2.1940   -0.6736 C.ar    1  UNL1        0.0112
      7 C           6.8416    2.3239   -1.1211 C.ar    1  UNL1        0.1321
      8 O           7.4858    3.5264   -1.3373 O.3     1  UNL1       -0.4558
      9 C           6.7142    4.6397   -1.5703 C.ar    1  UNL1        0.1313
     10 C           5.7737    4.6863   -2.6030 C.ar    1  UNL1       -0.0174
     11 C           4.9453    5.8034   -2.7434 C.ar    1  UNL1       -0.0342
     12 C           5.0761    6.8877   -1.8738 C.ar    1  UNL1        0.0704
     13 N           4.2179    8.0114   -1.8872 N.am    1  UNL1       -0.2667
     14 C           2.9321    8.0313   -2.4022 C.2     1  UNL1        0.3082
     15 O           2.3693    7.0718   -2.9134 O.2     1  UNL1       -0.2522
     16 N           2.3622    9.2846   -2.2439 N.am    1  UNL1       -0.2692
     17 C           1.0018    9.6052   -2.4305 C.ar    1  UNL1        0.0354
     18 C          -0.0122    8.6478   -2.4638 C.ar    1  UNL1       -0.0390
     19 C          -1.3442    9.0312   -2.6382 C.ar    1  UNL1       -0.0411
     20 C          -1.6787   10.3786   -2.7795 C.ar    1  UNL1        0.0527
     21 CL         -3.3446   10.7685   -3.0029 Cl      1  UNL1       -0.0830
     22 C          -0.6827   11.3597   -2.7357 C.ar    1  UNL1        0.0748
     23 C          -1.0132   12.8184   -2.8921 C.3     1  UNL1        0.4188
     24 F          -1.5761   13.1127   -4.0956 F       1  UNL1       -0.1658
     25 F          -1.8679   13.2806   -1.9393 F       1  UNL1       -0.1658
     26 F           0.0879   13.6224   -2.8051 F       1  UNL1       -0.1658
     27 C           0.6577   10.9566   -2.5495 C.ar    1  UNL1       -0.0274
     28 C           6.1008    6.8631   -0.9189 C.ar    1  UNL1        0.1480
     29 F           6.2683    7.9174   -0.1039 F       1  UNL1       -0.2034
     30 C           6.9185    5.7497   -0.7566 C.ar    1  UNL1        0.0177
     31 C           7.6046    1.1804   -1.3443 C.ar    1  UNL1       -0.0012
     32 C           7.0125   -0.0572   -1.1527 C.ar    1  UNL1        0.0319
     33 N           5.7306   -0.2250   -0.7658 N.ar    1  UNL1       -0.2501
     34 H           1.7831   -1.8369    0.7881 H       1  UNL1        0.0426
     35 H           1.3637   -1.2355   -0.8374 H       1  UNL1        0.0426
     36 H           1.2219   -0.1514    0.5729 H       1  UNL1        0.0426
     37 H           3.8599   -1.2790   -0.3543 H       1  UNL1        0.1487
     38 H           4.9004    3.0499   -0.4535 H       1  UNL1        0.0677
     39 H           5.6485    3.8432   -3.2781 H       1  UNL1        0.0655
     40 H           4.1980    5.7941   -3.5322 H       1  UNL1        0.0638
     41 H           4.4279    8.7150   -1.1903 H       1  UNL1        0.1565
     42 H           3.0150   10.0527   -2.1866 H       1  UNL1        0.1564
     43 H           0.1997    7.5885   -2.3416 H       1  UNL1        0.0636
     44 H          -2.1154    8.2639   -2.6619 H       1  UNL1        0.0633
     45 H           1.4374   11.7166   -2.5152 H       1  UNL1        0.0642
     46 H           7.6761    5.7420    0.0193 H       1  UNL1        0.0684
     47 H           8.6376    1.2534   -1.6667 H       1  UNL1        0.0669
     48 H           7.5727   -0.9740   -1.3169 H       1  UNL1        0.0831
@<TRIPOS>BOND
     1     1     2    1
     2     2     3   am
     3     3     4    2
     4     3     5    1
     5     5     6   ar
     6     6     7   ar
     7     7     8    1
     8     8     9    1
     9     9    10   ar
    10    10    11   ar
    11    11    12   ar
    12    12    13    1
    13    13    14   am
    14    14    15    2
    15    14    16   am
    16    16    17    1
    17    17    18   ar
    18    18    19   ar
    19    19    20   ar
    20    20    21    1
    21    20    22   ar
    22    22    23    1
    23    23    24    1
    24    23    25    1
    25    23    26    1
    26    22    27   ar
    27    17    27   ar
    28    12    28   ar
    29    28    29    1
    30    28    30   ar
    31     9    30   ar
    32     7    31   ar
    33    31    32   ar
    34    32    33   ar
    35     5    33   ar
    36     1    34    1
    37     1    35    1
    38     1    36    1
    39     2    37    1
    40     6    38    1
    41    10    39    1
    42    11    40    1
    43    13    41    1
    44    16    42    1
    45    18    43    1
    46    19    44    1
    47    27    45    1
    48    30    46    1
    49    31    47    1
    50    32    48    1
