@<TRIPOS>MOLECULE
*****
 77 80 0 0 0
SMALL
GASTEIGER

@<TRIPOS>ATOM
      1 C          -5.7629    2.5720    1.9619 C.3     1  UNL1       -0.0649
      2 C          -4.5644    1.6796    2.2641 C.3     1  UNL1       -0.0500
      3 C          -4.4233    0.5065    1.2690 C.3     1  UNL1       -0.0072
      4 C          -5.0641   -0.8004    1.7906 C.3     1  UNL1       -0.0500
      5 C          -6.5680   -0.7296    2.0021 C.3     1  UNL1       -0.0649
      6 C          -2.9326    0.2633    0.9501 C.3     1  UNL1        0.0953
      7 O          -2.2586   -0.2453    2.1092 O.3     1  UNL1       -0.4633
      8 C          -0.9153   -0.4205    1.9536 C.2     1  UNL1        0.3245
      9 O          -0.2698    0.0344    1.0149 O.2     1  UNL1       -0.2491
     10 C          -0.3090   -1.2185    3.1300 C.3     1  UNL1        0.1129
     11 C          -1.3330   -2.1546    3.7753 C.3     1  UNL1       -0.0388
     12 N           0.8226   -1.9874    2.6135 N.3     1  UNL1       -0.1988
     13 P           1.6111   -3.1771    3.6771 P.3     1  UNL1        0.4624
     14 O           1.3967   -4.2086    2.5655 O.2     1  UNL1       -0.2281
     15 O           3.0283   -2.3707    3.4568 O.3     1  UNL1       -0.2843
     16 C           3.6225   -1.7330    4.5762 C.3     1  UNL1        0.0879
     17 C           3.4736   -0.2165    4.5149 C.3     1  UNL1        0.1133
     18 C           3.9476    0.3837    3.2040 C.3     1  UNL1        0.1134
     19 C           4.2777    1.8035    3.6273 C.3     1  UNL1        0.1313
     20 C           4.8544    1.6129    5.0543 C.3     1  UNL1        0.2253
     21 O           4.2355    0.4052    5.5630 O.3     1  UNL1       -0.3430
     22 C           4.4458    2.7532    5.9155 C.1     1  UNL1        0.1070
     23 N           4.1116    3.6479    6.5792 N.1     1  UNL1       -0.1930
     24 C           6.3685    1.4793    5.0893 C.ar    1  UNL1        0.0921
     25 C           7.3161    2.4529    4.7717 C.ar    1  UNL1       -0.0343
     26 C           8.6016    1.9162    4.9905 C.ar    1  UNL1       -0.0311
     27 C           8.4151    0.6366    5.4555 C.ar    1  UNL1        0.1053
     28 N           7.0771    0.3652    5.4990 N.ar    1  UNL1       -0.2281
     29 N           6.5857   -0.8259    5.8733 N.ar    1  UNL1       -0.1545
     30 C           7.4788   -1.6986    6.2237 C.ar    1  UNL1        0.1388
     31 N           8.8391   -1.5241    6.2472 N.ar    1  UNL1       -0.2173
     32 C           9.3244   -0.3834    5.8677 C.ar    1  UNL1        0.1436
     33 N          10.6788   -0.2166    5.9005 N.pl3   1  UNL1       -0.3414
     34 O           5.0928    2.4560    2.6513 O.3     1  UNL1       -0.3848
     35 O           2.9200    0.3571    2.2211 O.3     1  UNL1       -0.3864
     36 O           2.3775   -4.3333    4.7109 O.3     1  UNL1       -0.4128
     37 C           3.4624   -5.1219    4.4235 C.ar    1  UNL1        0.1311
     38 C           4.1361   -5.1578    3.2062 C.ar    1  UNL1       -0.0194
     39 C           5.2393   -5.9999    3.0399 C.ar    1  UNL1       -0.0583
     40 C           5.6708   -6.8087    4.0900 C.ar    1  UNL1       -0.0615
     41 C           4.9980   -6.7779    5.3091 C.ar    1  UNL1       -0.0583
     42 C           3.8970   -5.9357    5.4738 C.ar    1  UNL1       -0.0194
     43 H          -5.7937    3.4095    2.6662 H       1  UNL1        0.0230
     44 H          -6.7101    2.0347    2.0421 H       1  UNL1        0.0230
     45 H          -5.6926    2.9878    0.9513 H       1  UNL1        0.0230
     46 H          -4.6281    1.3104    3.2942 H       1  UNL1        0.0266
     47 H          -3.6743    2.3195    2.2196 H       1  UNL1        0.0266
     48 H          -4.9075    0.7791    0.3221 H       1  UNL1        0.0333
     49 H          -4.5968   -1.1045    2.7353 H       1  UNL1        0.0266
     50 H          -4.8612   -1.6033    1.0705 H       1  UNL1        0.0266
     51 H          -6.8212   -0.0824    2.8465 H       1  UNL1        0.0230
     52 H          -6.9607   -1.7261    2.2299 H       1  UNL1        0.0230
     53 H          -7.0779   -0.3621    1.1066 H       1  UNL1        0.0230
     54 H          -2.4639    1.1965    0.6148 H       1  UNL1        0.0700
     55 H          -2.8486   -0.4775    0.1452 H       1  UNL1        0.0700
     56 H           0.0409   -0.4943    3.8731 H       1  UNL1        0.0578
     57 H          -1.7342   -2.8710    3.0491 H       1  UNL1        0.0250
     58 H          -2.1787   -1.5915    4.1853 H       1  UNL1        0.0250
     59 H          -0.8993   -2.7167    4.6088 H       1  UNL1        0.0250
     60 H           1.5331   -1.3777    2.2062 H       1  UNL1        0.1354
     61 H           3.2033   -2.1021    5.5191 H       1  UNL1        0.0592
     62 H           4.6788   -2.0151    4.5818 H       1  UNL1        0.0592
     63 H           2.4171    0.0338    4.6751 H       1  UNL1        0.0647
     64 H           4.8297   -0.1283    2.8025 H       1  UNL1        0.0647
     65 H           3.3433    2.3802    3.6654 H       1  UNL1        0.0664
     66 H           7.0941    3.4576    4.4256 H       1  UNL1        0.0637
     67 H           9.5506    2.4140    4.8377 H       1  UNL1        0.0640
     68 H           7.1227   -2.6938    6.5414 H       1  UNL1        0.1066
     69 H          11.1433   -0.9242    6.4592 H       1  UNL1        0.1438
     70 H          11.0052    0.7223    6.0906 H       1  UNL1        0.1438
     71 H           5.9073    1.9353    2.5227 H       1  UNL1        0.2101
     72 H           3.2072    0.9186    1.4749 H       1  UNL1        0.2100
     73 H           3.8180   -4.5522    2.3627 H       1  UNL1        0.0654
     74 H           5.7538   -6.0291    2.0828 H       1  UNL1        0.0619
     75 H           6.5237   -7.4681    3.9535 H       1  UNL1        0.0618
     76 H           5.3240   -7.4134    6.1278 H       1  UNL1        0.0619
     77 H           3.3712   -5.9206    6.4246 H       1  UNL1        0.0654
@<TRIPOS>BOND
     1     1     2    1
     2     2     3    1
     3     3     4    1
     4     4     5    1
     5     3     6    1
     6     6     7    1
     7     7     8    1
     8     8     9    2
     9     8    10    1
    10    10    11    1
    11    10    12    1
    12    12    13    1
    13    13    14    2
    14    13    15    1
    15    15    16    1
    16    16    17    1
    17    17    18    1
    18    18    19    1
    19    19    20    1
    20    20    21    1
    21    17    21    1
    22    20    22    1
    23    22    23    3
    24    20    24    1
    25    24    25   ar
    26    25    26   ar
    27    26    27   ar
    28    27    28   ar
    29    24    28   ar
    30    28    29   ar
    31    29    30   ar
    32    30    31   ar
    33    31    32   ar
    34    27    32   ar
    35    32    33    1
    36    19    34    1
    37    18    35    1
    38    13    36    1
    39    36    37    1
    40    37    38   ar
    41    38    39   ar
    42    39    40   ar
    43    40    41   ar
    44    41    42   ar
    45    37    42   ar
    46     1    43    1
    47     1    44    1
    48     1    45    1
    49     2    46    1
    50     2    47    1
    51     3    48    1
    52     4    49    1
    53     4    50    1
    54     5    51    1
    55     5    52    1
    56     5    53    1
    57     6    54    1
    58     6    55    1
    59    10    56    1
    60    11    57    1
    61    11    58    1
    62    11    59    1
    63    12    60    1
    64    16    61    1
    65    16    62    1
    66    17    63    1
    67    18    64    1
    68    19    65    1
    69    25    66    1
    70    26    67    1
    71    30    68    1
    72    33    69    1
    73    33    70    1
    74    34    71    1
    75    35    72    1
    76    38    73    1
    77    39    74    1
    78    40    75    1
    79    41    76    1
    80    42    77    1
