@<TRIPOS>MOLECULE
*****
 41 44 0 0 0
SMALL
GASTEIGER

@<TRIPOS>ATOM
      1 C          -0.8406   -1.1056    0.4732 C.3     1  UNL1       -0.0527
      2 C          -1.1694    0.3648    0.6965 C.3     1  UNL1       -0.0527
      3 C          -0.1455    1.1292   -0.1280 C.3     1  UNL1       -0.0482
      4 C           1.1230    0.2822   -0.0066 C.3     1  UNL1       -0.0176
      5 C           0.5629   -1.1447   -0.1308 C.3     1  UNL1       -0.0482
      6 C           2.2279    0.6021   -1.0452 C.3     1  UNL1        0.0682
      7 H           1.8518    0.3569   -2.0495 H       1  UNL1        0.0557
      8 C           2.6797    2.0747   -1.0483 C.3     1  UNL1        0.0574
      9 C           1.7776    2.9340   -1.8234 C.1     1  UNL1        0.0646
     10 N           1.0625    3.6182   -2.4284 N.1     1  UNL1       -0.1965
     11 N           3.3873   -0.2835   -0.8496 N.ar    1  UNL1       -0.2665
     12 C           4.4991   -0.0609   -0.0868 C.ar    1  UNL1        0.0350
     13 C           5.3704   -1.1011   -0.3454 C.ar    1  UNL1        0.0385
     14 C           4.6554   -1.9288   -1.2347 C.ar    1  UNL1        0.0586
     15 N           3.4493   -1.4408   -1.5373 N.ar    1  UNL1       -0.1787
     16 C           6.7221   -1.1725    0.1578 C.ar    1  UNL1        0.0863
     17 C           7.3900   -2.3846    0.3618 C.ar    1  UNL1        0.0447
     18 C           7.1074   -3.7799    0.2882 C.ar    1  UNL1       -0.0330
     19 C           8.2567   -4.4639    0.6281 C.ar    1  UNL1        0.0042
     20 N           9.2265   -3.5369    0.9095 N.ar    1  UNL1       -0.3457
     21 C           8.7144   -2.2769    0.7653 C.ar    1  UNL1        0.1419
     22 N           9.4081   -1.1498    0.9816 N.ar    1  UNL1       -0.2179
     23 C           8.6564   -0.0573    0.7708 C.ar    1  UNL1        0.1189
     24 N           7.3695    0.0000    0.3832 N.ar    1  UNL1       -0.2346
     25 H          -1.5594   -1.5677   -0.2129 H       1  UNL1        0.0265
     26 H          -0.8872   -1.6604    1.4160 H       1  UNL1        0.0265
     27 H          -1.0559    0.6125    1.7584 H       1  UNL1        0.0265
     28 H          -2.1962    0.6079    0.4064 H       1  UNL1        0.0265
     29 H          -0.0132    2.1454    0.2546 H       1  UNL1        0.0269
     30 H          -0.4802    1.1870   -1.1708 H       1  UNL1        0.0269
     31 H           1.5309    0.4053    1.0070 H       1  UNL1        0.0322
     32 H           1.1948   -1.8781    0.3805 H       1  UNL1        0.0269
     33 H           0.4905   -1.4462   -1.1830 H       1  UNL1        0.0269
     34 H           3.6771    2.1697   -1.4971 H       1  UNL1        0.0439
     35 H           2.7630    2.4508   -0.0212 H       1  UNL1        0.0439
     36 H           4.6174    0.8194    0.5300 H       1  UNL1        0.0833
     37 H           4.9701   -2.8511   -1.7053 H       1  UNL1        0.0854
     38 H           6.1645   -4.2427    0.0271 H       1  UNL1        0.0640
     39 H           8.4657   -5.5235    0.6984 H       1  UNL1        0.0807
     40 H          10.1779   -3.7277    1.1898 H       1  UNL1        0.1668
     41 H           9.1493    0.8977    0.9268 H       1  UNL1        0.1048
@<TRIPOS>BOND
     1     1     2    1
     2     2     3    1
     3     3     4    1
     4     4     5    1
     5     1     5    1
     6     4     6    1
     7     6     7    1
     8     6     8    1
     9     8     9    1
    10     9    10    3
    11     6    11    1
    12    11    12   ar
    13    12    13   ar
    14    13    14   ar
    15    14    15   ar
    16    11    15   ar
    17    13    16    1
    18    16    17   ar
    19    17    18   ar
    20    18    19   ar
    21    19    20   ar
    22    20    21   ar
    23    17    21   ar
    24    21    22   ar
    25    22    23   ar
    26    23    24   ar
    27    16    24   ar
    28     1    25    1
    29     1    26    1
    30     2    27    1
    31     2    28    1
    32     3    29    1
    33     3    30    1
    34     4    31    1
    35     5    32    1
    36     5    33    1
    37     8    34    1
    38     8    35    1
    39    12    36    1
    40    14    37    1
    41    18    38    1
    42    19    39    1
    43    20    40    1
    44    23    41    1
