@<TRIPOS>MOLECULE
*****
 61 62 0 0 0
SMALL
GASTEIGER

@<TRIPOS>ATOM
      1 C          -4.8108   -7.9943   -5.6321 C.3     1  UNL1       -0.0572
      2 C          -3.8348   -6.8299   -5.4602 C.3     1  UNL1       -0.0035
      3 C          -3.3044   -6.3612   -6.8197 C.3     1  UNL1       -0.0572
      4 C          -4.5011   -5.6865   -4.7107 C.ar    1  UNL1        0.0566
      5 N          -5.4449   -5.0128   -5.4136 N.ar    1  UNL1       -0.2172
      6 C          -6.0775   -4.0039   -4.8036 C.ar    1  UNL1        0.2377
      7 N          -5.7713   -3.5536   -3.5949 N.ar    1  UNL1       -0.2125
      8 C          -4.8601   -4.2527   -2.8763 C.ar    1  UNL1        0.0835
      9 C          -4.1899   -5.3665   -3.3893 C.ar    1  UNL1        0.0224
     10 C          -3.2353   -6.1560   -2.5990 C.2     1  UNL1       -0.0523
     11 C          -1.8965   -6.0411   -2.5801 C.2     1  UNL1       -0.0551
     12 C          -0.9803   -5.0877   -3.3020 C.3     1  UNL1        0.0760
     13 H          -0.5844   -5.6280   -4.1710 H       1  UNL1        0.0638
     14 C           0.2133   -4.6281   -2.4477 C.3     1  UNL1        0.0034
     15 C          -0.1186   -3.6143   -1.3384 C.3     1  UNL1        0.0679
     16 H          -0.6440   -2.7433   -1.7472 H       1  UNL1        0.0599
     17 C           1.1374   -3.1553   -0.5934 C.3     1  UNL1        0.0708
     18 C           1.9838   -2.2133   -1.4089 C.2     1  UNL1        0.3072
     19 O           1.7374   -1.8457   -2.5467 O.2     1  UNL1       -0.2509
     20 O           3.0905   -1.8086   -0.7428 O.3     1  UNL1       -0.4806
     21 O          -0.9645   -4.2215   -0.3596 O.3     1  UNL1       -0.3912
     22 O          -1.6927   -3.9625   -3.7871 O.3     1  UNL1       -0.3877
     23 C          -4.6533   -3.6998   -1.5205 C.ar    1  UNL1        0.0013
     24 C          -4.3480   -2.3334   -1.3593 C.ar    1  UNL1       -0.0498
     25 C          -4.1665   -1.7749   -0.0918 C.ar    1  UNL1       -0.0258
     26 C          -4.2927   -2.5790    1.0315 C.ar    1  UNL1        0.1234
     27 C          -4.6059   -3.9265    0.9106 C.ar    1  UNL1       -0.0258
     28 C          -4.7949   -4.4815   -0.3589 C.ar    1  UNL1       -0.0498
     29 F          -4.1208   -2.0472    2.2487 F       1  UNL1       -0.2055
     30 N          -6.9827   -3.2398   -5.6046 N.pl3   1  UNL1       -0.1777
     31 C          -7.2051   -3.8063   -6.9568 C.3     1  UNL1        0.0261
     32 S          -8.4038   -2.8337   -4.7598 S.O2    1  UNL1        0.0446
     33 O          -9.2831   -3.9866   -4.7693 O.2     1  UNL1       -0.1552
     34 O          -8.1101   -2.1340   -3.5266 O.2     1  UNL1       -0.1552
     35 C          -9.1296   -1.6059   -5.8273 C.3     1  UNL1        0.0739
     36 H          -4.3249   -8.8332   -6.1418 H       1  UNL1        0.0236
     37 H          -5.6880   -7.7053   -6.2217 H       1  UNL1        0.0236
     38 H          -5.1662   -8.3530   -4.6597 H       1  UNL1        0.0236
     39 H          -2.9689   -7.2041   -4.9060 H       1  UNL1        0.0359
     40 H          -4.1127   -6.0423   -7.4874 H       1  UNL1        0.0236
     41 H          -2.7604   -7.1695   -7.3201 H       1  UNL1        0.0236
     42 H          -2.6162   -5.5167   -6.7004 H       1  UNL1        0.0236
     43 H          -3.7000   -6.9378   -2.0000 H       1  UNL1        0.0622
     44 H          -1.3699   -6.7645   -1.9556 H       1  UNL1        0.0598
     45 H           0.9421   -4.1756   -3.1301 H       1  UNL1        0.0318
     46 H           0.6982   -5.5098   -2.0084 H       1  UNL1        0.0318
     47 H           1.7419   -4.0221   -0.3014 H       1  UNL1        0.0403
     48 H           0.8424   -2.6332    0.3251 H       1  UNL1        0.0403
     49 H           3.1577   -2.1678    0.1632 H       1  UNL1        0.2951
     50 H          -1.8765   -4.1664   -0.7063 H       1  UNL1        0.2098
     51 H          -1.0713   -3.4216   -4.3060 H       1  UNL1        0.2102
     52 H          -4.2686   -1.6935   -2.2376 H       1  UNL1        0.0625
     53 H          -3.9437   -0.7190    0.0203 H       1  UNL1        0.0646
     54 H          -4.7160   -4.5335    1.8034 H       1  UNL1        0.0646
     55 H          -5.0778   -5.5290   -0.4314 H       1  UNL1        0.0625
     56 H          -6.2549   -3.9082   -7.4937 H       1  UNL1        0.0447
     57 H          -7.8093   -3.1348   -7.5705 H       1  UNL1        0.0447
     58 H          -7.6959   -4.7841   -6.9096 H       1  UNL1        0.0447
     59 H          -9.5099   -2.0772   -6.7338 H       1  UNL1        0.0482
     60 H          -8.3825   -0.8433   -6.0545 H       1  UNL1        0.0482
     61 H          -9.9638   -1.1491   -5.2886 H       1  UNL1        0.0482
@<TRIPOS>BOND
     1     1     2    1
     2     2     3    1
     3     2     4    1
     4     4     5   ar
     5     5     6   ar
     6     6     7   ar
     7     7     8   ar
     8     8     9   ar
     9     4     9   ar
    10     9    10    1
    11    10    11    2
    12    12    14    1
    13    15    17    1
    14    17    18    1
    15    18    19    2
    16    18    20    1
    17    15    21    1
    18    12    22    1
    19     8    23    1
    20    23    24   ar
    21    24    25   ar
    22    25    26   ar
    23    26    27   ar
    24    27    28   ar
    25    23    28   ar
    26    26    29    1
    27     6    30    1
    28    30    31    1
    29    30    32    1
    30    32    33    2
    31    32    34    2
    32    32    35    1
    33    15    16    1
    34    15    14    1
    35    12    13    1
    36    12    11    1
    37     1    36    1
    38     1    37    1
    39     1    38    1
    40     2    39    1
    41     3    40    1
    42     3    41    1
    43     3    42    1
    44    10    43    1
    45    11    44    1
    46    14    45    1
    47    14    46    1
    48    17    47    1
    49    17    48    1
    50    20    49    1
    51    21    50    1
    52    22    51    1
    53    24    52    1
    54    25    53    1
    55    27    54    1
    56    28    55    1
    57    31    56    1
    58    31    57    1
    59    31    58    1
    60    35    59    1
    61    35    60    1
    62    35    61    1
