@<TRIPOS>MOLECULE
*****
 25 26 0 0 0
SMALL
GASTEIGER

@<TRIPOS>ATOM
      1 C           2.1712    0.8182    0.2351 C.ar    1  UNL1       -0.0182
      2 C           0.9010    1.3798    0.3909 C.ar    1  UNL1       -0.0343
      3 C          -0.2054    0.5498    0.1706 C.ar    1  UNL1        0.0470
      4 C          -0.0840   -0.7920   -0.1930 C.ar    1  UNL1        0.0063
      5 C           1.2090   -1.3366   -0.3471 C.ar    1  UNL1       -0.0108
      6 C           2.3161   -0.5143   -0.1272 C.ar    1  UNL1        0.1176
      7 O           3.5869   -0.9972   -0.2615 O.3     1  UNL1       -0.5067
      8 C          -1.4085   -1.3227   -0.3264 C.ar    1  UNL1       -0.0211
      9 C          -2.2828   -0.2907   -0.0456 C.ar    1  UNL1        0.0059
     10 N          -1.5499    0.8273    0.2489 N.ar    1  UNL1       -0.3604
     11 C          -1.7764   -2.7254   -0.7006 C.3     1  UNL1       -0.0133
     12 C          -1.6517   -3.6927    0.4828 C.3     1  UNL1       -0.0029
     13 N          -2.0003   -5.0614    0.0978 N.3     1  UNL1       -0.3297
     14 H           3.0549    1.4297    0.3978 H       1  UNL1        0.0655
     15 H           0.7855    2.4211    0.6722 H       1  UNL1        0.0639
     16 H           1.3246   -2.3766   -0.6305 H       1  UNL1        0.0661
     17 H           3.5325   -1.9310   -0.5230 H       1  UNL1        0.2921
     18 H          -3.3642   -0.2570   -0.0337 H       1  UNL1        0.0810
     19 H          -1.9341    1.7303    0.4893 H       1  UNL1        0.1653
     20 H          -1.1338   -3.0581   -1.5258 H       1  UNL1        0.0326
     21 H          -2.8054   -2.7410   -1.0831 H       1  UNL1        0.0326
     22 H          -2.3046   -3.3727    1.3033 H       1  UNL1        0.0425
     23 H          -0.6257   -3.6898    0.8676 H       1  UNL1        0.0425
     24 H          -2.9762   -5.0931   -0.1957 H       1  UNL1        0.1182
     25 H          -1.9329   -5.6638    0.9178 H       1  UNL1        0.1182
@<TRIPOS>BOND
     1     1     2   ar
     2     2     3   ar
     3     3     4   ar
     4     4     5   ar
     5     5     6   ar
     6     1     6   ar
     7     6     7    1
     8     4     8   ar
     9     8     9   ar
    10     9    10   ar
    11     3    10   ar
    12     8    11    1
    13    11    12    1
    14    12    13    1
    15     1    14    1
    16     2    15    1
    17     5    16    1
    18     7    17    1
    19     9    18    1
    20    10    19    1
    21    11    20    1
    22    11    21    1
    23    12    22    1
    24    12    23    1
    25    13    24    1
    26    13    25    1
