@<TRIPOS>MOLECULE
*****
 35 36 0 0 0
SMALL
GASTEIGER

@<TRIPOS>ATOM
      1 C          -1.0249   -0.7395   -0.7239 C.3     1  UNL1        0.0000
      2 C           0.0239   -1.1164    0.3600 C.3     1  UNL1        0.0000
      3 C           1.4157   -0.8476   -0.3074 C.3     1  UNL1        0.0000
      4 H           1.3910   -1.2564   -1.3423 H       1  UNL1        0.0000
      5 C           1.4937    0.6937   -0.2558 C.3     1  UNL1        0.0000
      6 C           0.1170    1.1057    0.3158 C.3     1  UNL1        0.0000
      7 H           0.0994    2.1743    0.6200 H       1  UNL1        0.0000
      8 C          -0.9273    0.7932   -0.7781 C.3     1  UNL1        0.0000
      9 C          -0.1500    0.0319    1.3969 C.3     1  UNL1        0.0000
     10 C           0.8533    0.0413    2.5894 C.3     1  UNL1        0.0000
     11 C          -1.5573    0.1325    2.0663 C.3     1  UNL1        0.0000
     12 S           2.8503   -1.6487    0.5266 S.3     1  UNL1        0.0000
     13 C           4.0991   -1.1774   -0.7265 C.3     1  UNL1        0.0000
     14 C           5.4833   -1.5940   -0.3130 C.2     1  UNL1        0.0000
     15 O           5.6830   -2.1766    0.7416 O.2     1  UNL1        0.0000
     16 O           6.5248   -1.3147   -1.1190 O.3     1  UNL1        0.0000
     17 NA          8.3869   -1.8514   -0.5679 Na      1  UNL1        0.0000
     18 C          -0.1780   -2.5581    0.8521 C.3     1  UNL1        0.0000
     19 H          -2.0475   -1.0278   -0.3992 H       1  UNL1        0.0000
     20 H          -0.8637   -1.2344   -1.7064 H       1  UNL1        0.0000
     21 H           1.7442    1.1581   -1.2340 H       1  UNL1        0.0000
     22 H           2.2751    1.0254    0.4575 H       1  UNL1        0.0000
     23 H          -0.6281    1.1933   -1.7714 H       1  UNL1        0.0000
     24 H          -1.9140    1.2339   -0.5197 H       1  UNL1        0.0000
     25 H           1.9198    0.0168    2.3262 H       1  UNL1        0.0000
     26 H           0.6680   -0.8320    3.2503 H       1  UNL1        0.0000
     27 H           0.7170    0.9666    3.1893 H       1  UNL1        0.0000
     28 H          -2.4168    0.1645    1.3747 H       1  UNL1        0.0000
     29 H          -1.6203    1.0606    2.6742 H       1  UNL1        0.0000
     30 H          -1.7220   -0.7346    2.7409 H       1  UNL1        0.0000
     31 H           4.1089   -0.0746   -0.8477 H       1  UNL1        0.0000
     32 H           3.8595   -1.6739   -1.6901 H       1  UNL1        0.0000
     33 H          -0.0475   -3.2703    0.0099 H       1  UNL1        0.0000
     34 H          -1.1996   -2.6862    1.2672 H       1  UNL1        0.0000
     35 H           0.5481   -2.8103    1.6516 H       1  UNL1        0.0000
@<TRIPOS>BOND
     1     1     2    1
     2     2     3    1
     3     3     4    1
     4     3     5    1
     5     5     6    1
     6     6     7    1
     7     6     8    1
     8     1     8    1
     9     6     9    1
    10     2     9    1
    11     9    10    1
    12     9    11    1
    13     3    12    1
    14    12    13    1
    15    13    14    1
    16    14    15    2
    17    14    16    1
    18    16    17    1
    19     2    18    1
    20     1    19    1
    21     1    20    1
    22     5    21    1
    23     5    22    1
    24     8    23    1
    25     8    24    1
    26    10    25    1
    27    10    26    1
    28    10    27    1
    29    11    28    1
    30    11    29    1
    31    11    30    1
    32    13    31    1
    33    13    32    1
    34    18    33    1
    35    18    34    1
    36    18    35    1
