@<TRIPOS>MOLECULE
*****
 48 50 0 0 0
SMALL
GASTEIGER

@<TRIPOS>ATOM
      1 C           1.4511   -0.0920   -0.7093 C.3     1  UNL1        0.0004
      2 N           2.8286   -0.2445   -0.3304 N.am    1  UNL1       -0.3132
      3 C           3.2034   -0.9103    0.8160 C.2     1  UNL1        0.2623
      4 O           2.4110   -1.3771    1.6275 O.2     1  UNL1       -0.2685
      5 C           4.6842   -1.0268    1.0120 C.ar    1  UNL1        0.1288
      6 N           5.4755   -0.5734   -0.0028 N.ar    1  UNL1       -0.2501
      7 C           6.8098   -0.6719    0.1884 C.ar    1  UNL1        0.0319
      8 C           7.3911   -1.1789    1.3395 C.ar    1  UNL1       -0.0012
      9 C           6.5511   -1.6047    2.3626 C.ar    1  UNL1        0.1321
     10 C           5.1703   -1.5588    2.1940 C.ar    1  UNL1        0.0112
     11 O           7.1421   -2.0878    3.5135 O.3     1  UNL1       -0.4559
     12 C           6.5669   -1.6660    4.6912 C.ar    1  UNL1        0.1286
     13 C           6.0420   -2.6205    5.5581 C.ar    1  UNL1       -0.0176
     14 C           5.3713   -2.2093    6.7162 C.ar    1  UNL1       -0.0370
     15 C           5.2383   -0.8466    7.0202 C.ar    1  UNL1        0.0350
     16 C           5.8245    0.0926    6.1657 C.ar    1  UNL1       -0.0370
     17 C           6.4973   -0.3124    5.0116 C.ar    1  UNL1       -0.0176
     18 N           4.4692   -0.4975    8.1543 N.am    1  UNL1       -0.2692
     19 C           4.2539    0.7822    8.6436 C.2     1  UNL1        0.3081
     20 O           4.8487    1.7819    8.2620 O.2     1  UNL1       -0.2522
     21 N           3.2443    0.7899    9.5990 N.am    1  UNL1       -0.2692
     22 C           2.7580    1.9347   10.2720 C.ar    1  UNL1        0.0354
     23 C           1.5153    1.8425   10.9119 C.ar    1  UNL1       -0.0274
     24 C           0.9269    2.9631   11.5411 C.ar    1  UNL1        0.0748
     25 C           1.6181    4.1789   11.5317 C.ar    1  UNL1        0.0527
     26 C           2.8747    4.2661   10.9340 C.ar    1  UNL1       -0.0411
     27 C           3.4418    3.1498   10.3157 C.ar    1  UNL1       -0.0390
     28 CL          0.9688    5.6155   12.2328 Cl      1  UNL1       -0.0830
     29 C          -0.4316    2.8442   12.1760 C.3     1  UNL1        0.4188
     30 F          -0.4519    3.2206   13.4835 F       1  UNL1       -0.1658
     31 F          -1.3799    3.5872   11.5429 F       1  UNL1       -0.1658
     32 F          -0.9101    1.5648   12.1655 F       1  UNL1       -0.1658
     33 H           1.3762    0.7137   -1.4427 H       1  UNL1        0.0426
     34 H           0.8424    0.1435    0.1682 H       1  UNL1        0.0426
     35 H           1.1034   -1.0301   -1.1493 H       1  UNL1        0.0426
     36 H           3.5780    0.0209   -0.9645 H       1  UNL1        0.1487
     37 H           7.4242   -0.3147   -0.6342 H       1  UNL1        0.0831
     38 H           8.4693   -1.2238    1.4445 H       1  UNL1        0.0669
     39 H           4.4864   -1.9052    2.9608 H       1  UNL1        0.0677
     40 H           6.1178   -3.6767    5.3155 H       1  UNL1        0.0655
     41 H           4.9363   -2.9696    7.3592 H       1  UNL1        0.0637
     42 H           5.7590    1.1598    6.3496 H       1  UNL1        0.0637
     43 H           6.9321    0.4376    4.3569 H       1  UNL1        0.0655
     44 H           4.0918   -1.2614    8.6932 H       1  UNL1        0.1564
     45 H           2.6613   -0.0329    9.6300 H       1  UNL1        0.1564
     46 H           0.9707    0.8989   10.9021 H       1  UNL1        0.0642
     47 H           3.4233    5.2056   10.9301 H       1  UNL1        0.0633
     48 H           4.4258    3.2693    9.8714 H       1  UNL1        0.0636
@<TRIPOS>BOND
     1     1     2    1
     2     2     3   am
     3     3     4    2
     4     3     5    1
     5     5     6   ar
     6     6     7   ar
     7     7     8   ar
     8     8     9   ar
     9     9    10   ar
    10     5    10   ar
    11     9    11    1
    12    11    12    1
    13    12    13   ar
    14    13    14   ar
    15    14    15   ar
    16    15    16   ar
    17    16    17   ar
    18    12    17   ar
    19    15    18    1
    20    18    19   am
    21    19    20    2
    22    19    21   am
    23    21    22    1
    24    22    23   ar
    25    23    24   ar
    26    24    25   ar
    27    25    26   ar
    28    26    27   ar
    29    22    27   ar
    30    25    28    1
    31    24    29    1
    32    29    30    1
    33    29    31    1
    34    29    32    1
    35     1    33    1
    36     1    34    1
    37     1    35    1
    38     2    36    1
    39     7    37    1
    40     8    38    1
    41    10    39    1
    42    13    40    1
    43    14    41    1
    44    16    42    1
    45    17    43    1
    46    18    44    1
    47    21    45    1
    48    23    46    1
    49    26    47    1
    50    27    48    1
