@<TRIPOS>MOLECULE
*****
 78 81 0 0 0
SMALL
GASTEIGER

@<TRIPOS>ATOM
      1 C           4.2380    1.7187    2.8386 C.3     1  UNL1       -0.0647
      2 C           3.7237    0.2881    2.7174 C.3     1  UNL1       -0.0494
      3 C           3.0137   -0.2742    3.9721 C.3     1  UNL1       -0.0208
      4 H           2.7632   -1.3203    3.7441 H       1  UNL1        0.0345
      5 C           1.7232    0.4883    4.1925 C.2     1  UNL1       -0.0843
      6 C           0.4957    0.0222    3.9005 C.2     1  UNL1       -0.0845
      7 C          -0.8005    0.8050    4.0800 C.3     1  UNL1       -0.0224
      8 H          -1.5809    0.2507    3.5431 H       1  UNL1        0.0343
      9 C          -1.1337    0.7861    5.5770 C.3     1  UNL1       -0.0587
     10 C          -0.7204    2.2382    3.4827 C.3     1  UNL1       -0.0291
     11 H           0.0172    2.7803    4.0919 H       1  UNL1        0.0312
     12 C          -0.1483    2.2461    2.0329 C.3     1  UNL1       -0.0486
     13 C          -0.8015    3.4278    1.3265 C.3     1  UNL1       -0.0457
     14 C          -2.2157    3.3307    1.8717 C.3     1  UNL1       -0.0139
     15 H          -2.6297    2.4006    1.4470 H       1  UNL1        0.0351
     16 C          -2.0133    3.1393    3.4022 C.3     1  UNL1       -0.0222
     17 C          -3.3604    2.6238    3.9489 C.3     1  UNL1       -0.0463
     18 C          -4.5519    3.5559    3.5990 C.3     1  UNL1       -0.0455
     19 C          -4.6377    3.9708    2.1058 C.3     1  UNL1       -0.0139
     20 H          -4.8953    3.0499    1.5606 H       1  UNL1        0.0351
     21 C          -3.2479    4.3945    1.6205 C.2     1  UNL1       -0.0662
     22 C          -2.9707    5.6096    1.1174 C.2     1  UNL1       -0.0839
     23 C          -3.9635    6.7295    1.0658 C.3     1  UNL1       -0.0311
     24 C          -5.1850    6.4667    1.9623 C.3     1  UNL1       -0.0293
     25 H          -4.8432    6.5353    3.0067 H       1  UNL1        0.0310
     26 C          -5.7586    5.0308    1.7556 C.3     1  UNL1       -0.0223
     27 C          -7.0296    4.8616    2.6333 C.3     1  UNL1       -0.0445
     28 C          -8.0677    5.9646    2.4233 C.3     1  UNL1       -0.0263
     29 C          -7.4611    7.3468    2.6472 C.3     1  UNL1        0.0556
     30 H          -7.1818    7.4531    3.7022 H       1  UNL1        0.0593
     31 C          -6.2296    7.5764    1.7753 C.3     1  UNL1       -0.0232
     32 O          -8.4345    8.3481    2.3712 O.3     1  UNL1       -0.3918
     33 C          -6.1679    4.8034    0.2705 C.3     1  UNL1       -0.0588
     34 C          -1.6643    4.4663    4.1423 C.3     1  UNL1       -0.0587
     35 C           3.8911   -0.2765    5.2591 C.3     1  UNL1       -0.0405
     36 C           5.2323   -0.9888    5.0475 C.3     1  UNL1       -0.0621
     37 C           3.1638   -0.9415    6.4378 C.3     1  UNL1       -0.0621
     38 H           3.4280    2.4245    3.0444 H       1  UNL1        0.0230
     39 H           4.7083    2.0240    1.8980 H       1  UNL1        0.0230
     40 H           4.9885    1.8135    3.6281 H       1  UNL1        0.0230
     41 H           3.0312    0.2453    1.8659 H       1  UNL1        0.0268
     42 H           4.5610   -0.3652    2.4455 H       1  UNL1        0.0268
     43 H           1.8282    1.4888    4.6080 H       1  UNL1        0.0572
     44 H           0.3891   -0.9832    3.4966 H       1  UNL1        0.0572
     45 H          -0.9544   -0.2043    6.0133 H       1  UNL1        0.0235
     46 H          -2.1824    1.0120    5.7675 H       1  UNL1        0.0235
     47 H          -0.5247    1.5083    6.1324 H       1  UNL1        0.0235
     48 H          -0.4154    1.3192    1.5092 H       1  UNL1        0.0268
     49 H           0.9423    2.3357    2.0187 H       1  UNL1        0.0268
     50 H          -0.7645    3.3191    0.2380 H       1  UNL1        0.0271
     51 H          -0.3027    4.3644    1.5946 H       1  UNL1        0.0271
     52 H          -3.3313    2.5393    5.0387 H       1  UNL1        0.0271
     53 H          -3.5716    1.6250    3.5478 H       1  UNL1        0.0271
     54 H          -4.5048    4.4486    4.2332 H       1  UNL1        0.0271
     55 H          -5.4688    3.0247    3.8829 H       1  UNL1        0.0271
     56 H          -1.9646    5.8551    0.7880 H       1  UNL1        0.0572
     57 H          -4.2585    6.9000    0.0241 H       1  UNL1        0.0310
     58 H          -3.4687    7.6480    1.4059 H       1  UNL1        0.0310
     59 H          -6.7615    4.8827    3.6958 H       1  UNL1        0.0272
     60 H          -7.4931    3.8854    2.4457 H       1  UNL1        0.0272
     61 H          -8.9058    5.8198    3.1164 H       1  UNL1        0.0290
     62 H          -8.5100    5.9000    1.4222 H       1  UNL1        0.0290
     63 H          -5.7903    8.5503    2.0286 H       1  UNL1        0.0293
     64 H          -6.5262    7.6642    0.7227 H       1  UNL1        0.0293
     65 H          -8.6880    8.2707    1.4356 H       1  UNL1        0.2098
     66 H          -5.3053    4.7924   -0.4031 H       1  UNL1        0.0235
     67 H          -6.8530    5.5718   -0.0984 H       1  UNL1        0.0235
     68 H          -6.6725    3.8370    0.1541 H       1  UNL1        0.0235
     69 H          -0.7446    4.9204    3.7582 H       1  UNL1        0.0235
     70 H          -1.5107    4.2708    5.2104 H       1  UNL1        0.0235
     71 H          -2.4461    5.2263    4.0659 H       1  UNL1        0.0235
     72 H           4.1059    0.7590    5.5543 H       1  UNL1        0.0301
     73 H           5.7987   -1.0386    5.9841 H       1  UNL1        0.0233
     74 H           5.8602   -0.4581    4.3259 H       1  UNL1        0.0233
     75 H           5.0846   -2.0123    4.6873 H       1  UNL1        0.0233
     76 H           3.8022   -0.9568    7.3281 H       1  UNL1        0.0233
     77 H           2.8905   -1.9754    6.2012 H       1  UNL1        0.0233
     78 H           2.2518   -0.3993    6.7063 H       1  UNL1        0.0233
@<TRIPOS>BOND
     1     1     2    1
     2     3     5    1
     3     5     6    2
     4     6     7    1
     5     7     8    1
     6     7     9    1
     7    10    12    1
     8    12    13    1
     9    13    14    1
    10    14    16    1
    11    10    16    1
    12    16    17    1
    13    17    18    1
    14    18    19    1
    15    19    21    1
    16    14    21    1
    17    21    22    2
    18    22    23    1
    19    23    24    1
    20    24    26    1
    21    19    26    1
    22    26    27    1
    23    27    28    1
    24    28    29    1
    25    29    31    1
    26    24    31    1
    27     3    35    1
    28    35    36    1
    29    35    37    1
    30    14    15    1
    31    16    34    1
    32    19    20    1
    33    24    25    1
    34    26    33    1
    35    29    32    1
    36    29    30    1
    37     3     4    1
    38     3     2    1
    39    10    11    1
    40    10     7    1
    41     1    38    1
    42     1    39    1
    43     1    40    1
    44     2    41    1
    45     2    42    1
    46     5    43    1
    47     6    44    1
    48     9    45    1
    49     9    46    1
    50     9    47    1
    51    12    48    1
    52    12    49    1
    53    13    50    1
    54    13    51    1
    55    17    52    1
    56    17    53    1
    57    18    54    1
    58    18    55    1
    59    22    56    1
    60    23    57    1
    61    23    58    1
    62    27    59    1
    63    27    60    1
    64    28    61    1
    65    28    62    1
    66    31    63    1
    67    31    64    1
    68    32    65    1
    69    33    66    1
    70    33    67    1
    71    33    68    1
    72    34    69    1
    73    34    70    1
    74    34    71    1
    75    35    72    1
    76    36    73    1
    77    36    74    1
    78    36    75    1
    79    37    76    1
    80    37    77    1
    81    37    78    1
