@<TRIPOS>MOLECULE
*****
 38 39 0 0 0
SMALL
GASTEIGER

@<TRIPOS>ATOM
      1 C           0.9693   -0.3554    0.1144 C.3     1  UNL1        0.0689
      2 S           0.4421   -1.2929   -1.3146 S.O2    1  UNL1       -0.0286
      3 O           1.1074   -0.7442   -2.4807 O.2     1  UNL1       -0.1743
      4 O           0.5300   -2.7061   -1.0027 O.2     1  UNL1       -0.1743
      5 C          -1.2807   -0.8811   -1.4294 C.3     1  UNL1        0.0888
      6 C          -1.9161   -1.5659   -2.6190 C.3     1  UNL1        0.0635
      7 O          -3.3042   -1.2443   -2.6450 O.3     1  UNL1       -0.3934
      8 C           2.4541   -0.5583    0.4541 C.3     1  UNL1       -0.0183
      9 C           2.7176   -1.9529    1.0789 C.3     1  UNL1       -0.0482
     10 C           3.8361   -1.9885    2.1351 C.3     1  UNL1       -0.0494
     11 C           4.0196   -0.6144    2.7886 C.3     1  UNL1       -0.0353
     12 C           2.6588    0.1366    2.9212 C.3     1  UNL1       -0.0461
     13 C           2.9048    0.5482    1.4343 C.3     1  UNL1       -0.0311
     14 C           4.4492    0.5344    1.7930 C.3     1  UNL1       -0.0289
     15 C           5.4374    0.1676    0.6804 C.3     1  UNL1       -0.0593
     16 C           4.9664    1.8179    2.4720 C.3     1  UNL1       -0.0593
     17 H           0.3234   -0.6348    0.9531 H       1  UNL1        0.0503
     18 H           0.7730    0.6951   -0.1286 H       1  UNL1        0.0503
     19 H          -1.3715    0.2063   -1.5130 H       1  UNL1        0.0523
     20 H          -1.7674   -1.1898   -0.4986 H       1  UNL1        0.0523
     21 H          -1.4649   -1.2292   -3.5578 H       1  UNL1        0.0573
     22 H          -1.8141   -2.6539   -2.5545 H       1  UNL1        0.0573
     23 H          -3.6889   -1.7115   -3.4084 H       1  UNL1        0.2095
     24 H           3.0311   -0.4641   -0.4730 H       1  UNL1        0.0319
     25 H           2.9294   -2.6880    0.2936 H       1  UNL1        0.0269
     26 H           1.8004   -2.3076    1.5684 H       1  UNL1        0.0269
     27 H           4.7772   -2.3295    1.6906 H       1  UNL1        0.0268
     28 H           3.5768   -2.7310    2.8996 H       1  UNL1        0.0268
     29 H           4.6128   -0.6710    3.7073 H       1  UNL1        0.0306
     30 H           2.6465    0.9629    3.6397 H       1  UNL1        0.0271
     31 H           1.7744   -0.4725    3.1321 H       1  UNL1        0.0271
     32 H           2.5310    1.5405    1.1573 H       1  UNL1        0.0309
     33 H           5.1650   -0.7376    0.1332 H       1  UNL1        0.0235
     34 H           6.4381    0.0008    1.0945 H       1  UNL1        0.0235
     35 H           5.5074    0.9770   -0.0549 H       1  UNL1        0.0235
     36 H           4.3243    2.1723    3.2821 H       1  UNL1        0.0235
     37 H           5.0436    2.6323    1.7429 H       1  UNL1        0.0235
     38 H           5.9618    1.6509    2.8988 H       1  UNL1        0.0235
@<TRIPOS>BOND
     1     1     2    1
     2     2     3    2
     3     2     4    2
     4     2     5    1
     5     5     6    1
     6     6     7    1
     7     1     8    1
     8     8     9    1
     9     9    10    1
    10    10    11    1
    11    11    12    1
    12    12    13    1
    13     8    13    1
    14    13    14    1
    15    11    14    1
    16    14    15    1
    17    14    16    1
    18     1    17    1
    19     1    18    1
    20     5    19    1
    21     5    20    1
    22     6    21    1
    23     6    22    1
    24     7    23    1
    25     8    24    1
    26     9    25    1
    27     9    26    1
    28    10    27    1
    29    10    28    1
    30    11    29    1
    31    12    30    1
    32    12    31    1
    33    13    32    1
    34    15    33    1
    35    15    34    1
    36    15    35    1
    37    16    36    1
    38    16    37    1
    39    16    38    1
