@<TRIPOS>MOLECULE
*****
 56 58 0 0 0
SMALL
GASTEIGER

@<TRIPOS>ATOM
      1 C           2.6398    0.3497    0.4894 C.3     1  UNL1       -0.0524
      2 C           2.3485   -0.5119   -0.7365 C.3     1  UNL1       -0.0039
      3 N           2.7021    0.0604   -2.0440 N.3     1  UNL1       -0.3014
      4 C           2.0235    1.3299   -2.3524 C.3     1  UNL1       -0.0039
      5 C           0.5015    1.2245   -2.3620 C.3     1  UNL1       -0.0524
      6 C           4.1591    0.1919   -2.2607 C.3     1  UNL1        0.0145
      7 C           4.8633   -1.1617   -2.4877 C.3     1  UNL1        0.0247
      8 N           6.2948   -1.0506   -2.6967 N.am    1  UNL1       -0.3101
      9 C           6.8365   -0.4768   -3.8239 C.2     1  UNL1        0.2461
     10 O           6.1753    0.0716   -4.6972 O.2     1  UNL1       -0.2701
     11 C           8.2941   -0.5547   -3.8680 C.ar    1  UNL1        0.0604
     12 C           9.1379    0.5215   -4.0787 C.ar    1  UNL1        0.0257
     13 C           8.8545    1.9650   -4.2880 C.3     1  UNL1       -0.0237
     14 N          10.4270    0.0525   -4.0712 N.ar    1  UNL1       -0.3578
     15 C          10.4540   -1.3087   -3.8922 C.ar    1  UNL1        0.0438
     16 C          11.6682   -2.0546   -3.9178 C.2     1  UNL1       -0.0253
     17 C          12.9392   -1.6256   -3.9966 C.2     1  UNL1        0.0479
     18 C          13.5161   -0.2297   -4.0544 C.2     1  UNL1        0.2490
     19 O          12.9255    0.8329   -4.0564 O.2     1  UNL1       -0.2698
     20 N          14.8894   -0.3980   -4.1143 N.am    1  UNL1       -0.2809
     21 C          15.2389   -1.7415   -4.1143 C.ar    1  UNL1        0.0417
     22 C          14.0948   -2.5451   -4.0447 C.ar    1  UNL1        0.0111
     23 C          14.2158   -3.9241   -4.0483 C.ar    1  UNL1       -0.0168
     24 C          15.5010   -4.4623   -4.1188 C.ar    1  UNL1        0.1241
     25 F          15.6498   -5.7936   -4.1274 F       1  UNL1       -0.2055
     26 C          16.6426   -3.6504   -4.1841 C.ar    1  UNL1       -0.0247
     27 C          16.5178   -2.2603   -4.1824 C.ar    1  UNL1       -0.0372
     28 C           9.1302   -1.7212   -3.7504 C.ar    1  UNL1       -0.0134
     29 C           8.6380   -3.1182   -3.5662 C.3     1  UNL1       -0.0370
     30 H           3.7055    0.5748    0.5866 H       1  UNL1        0.0242
     31 H           2.3349   -0.1853    1.3952 H       1  UNL1        0.0242
     32 H           2.0846    1.2920    0.4669 H       1  UNL1        0.0242
     33 H           2.8494   -1.4777   -0.6080 H       1  UNL1        0.0424
     34 H           1.2825   -0.7690   -0.7348 H       1  UNL1        0.0424
     35 H           2.3148    1.6502   -3.3612 H       1  UNL1        0.0424
     36 H           2.3368    2.1286   -1.6698 H       1  UNL1        0.0424
     37 H           0.1668    0.4056   -3.0076 H       1  UNL1        0.0242
     38 H           0.0667    2.1524   -2.7484 H       1  UNL1        0.0242
     39 H           0.0959    1.0664   -1.3584 H       1  UNL1        0.0242
     40 H           4.6402    0.7392   -1.4416 H       1  UNL1        0.0442
     41 H           4.3307    0.7991   -3.1576 H       1  UNL1        0.0442
     42 H           4.4354   -1.6619   -3.3641 H       1  UNL1        0.0475
     43 H           4.7385   -1.8219   -1.6245 H       1  UNL1        0.0475
     44 H           6.9288   -1.3920   -1.9874 H       1  UNL1        0.1491
     45 H           7.8235    2.2157   -4.0212 H       1  UNL1        0.0292
     46 H           9.0121    2.2345   -5.3370 H       1  UNL1        0.0292
     47 H           9.5153    2.5818   -3.6698 H       1  UNL1        0.0292
     48 H          11.2429    0.6448   -4.1942 H       1  UNL1        0.1656
     49 H          11.5190   -3.1310   -3.8757 H       1  UNL1        0.0646
     50 H          15.5295    0.3800   -4.1661 H       1  UNL1        0.1552
     51 H          13.3600   -4.5861   -4.0049 H       1  UNL1        0.0653
     52 H          17.6222   -4.1171   -4.2393 H       1  UNL1        0.0647
     53 H          17.3925   -1.6223   -4.2367 H       1  UNL1        0.0637
     54 H           9.3507   -3.8556   -3.9464 H       1  UNL1        0.0278
     55 H           7.6968   -3.2750   -4.1032 H       1  UNL1        0.0278
     56 H           8.4692   -3.3205   -2.5039 H       1  UNL1        0.0278
@<TRIPOS>BOND
     1     1     2    1
     2     2     3    1
     3     3     4    1
     4     4     5    1
     5     3     6    1
     6     6     7    1
     7     7     8    1
     8     8     9   am
     9     9    10    2
    10     9    11    1
    11    11    12   ar
    12    12    13    1
    13    12    14   ar
    14    14    15   ar
    15    15    16    1
    16    16    17    2
    17    17    18    1
    18    18    19    2
    19    18    20   am
    20    20    21    1
    21    21    22   ar
    22    17    22    1
    23    22    23   ar
    24    23    24   ar
    25    24    25    1
    26    24    26   ar
    27    26    27   ar
    28    21    27   ar
    29    15    28   ar
    30    11    28   ar
    31    28    29    1
    32     1    30    1
    33     1    31    1
    34     1    32    1
    35     2    33    1
    36     2    34    1
    37     4    35    1
    38     4    36    1
    39     5    37    1
    40     5    38    1
    41     5    39    1
    42     6    40    1
    43     6    41    1
    44     7    42    1
    45     7    43    1
    46     8    44    1
    47    13    45    1
    48    13    46    1
    49    13    47    1
    50    14    48    1
    51    16    49    1
    52    20    50    1
    53    23    51    1
    54    26    52    1
    55    27    53    1
    56    29    54    1
    57    29    55    1
    58    29    56    1
