@<TRIPOS>MOLECULE
*****
 81 82 0 0 0
SMALL
GASTEIGER

@<TRIPOS>ATOM
      1 C           6.6111   -4.3157    3.6077 C.3     1  UNL1       -0.0359
      2 C           7.5915   -5.1478    2.8195 C.ar    1  UNL1       -0.0024
      3 C           7.9518   -4.7917    1.5022 C.ar    1  UNL1       -0.0021
      4 C           7.3898   -3.5484    0.8568 C.3     1  UNL1       -0.0359
      5 C           8.8981   -5.5753    0.8103 C.ar    1  UNL1        0.1281
      6 O           9.2368   -5.1322   -0.4437 O.3     1  UNL1       -0.4854
      7 C          10.4318   -5.6555   -1.0631 C.3     1  UNL1        0.1082
      8 C          11.6488   -4.9367   -0.4525 C.3     1  UNL1       -0.0249
      9 C          10.2689   -5.2767   -2.5669 C.3     1  UNL1       -0.0132
     10 C          11.4782   -5.4437   -3.4988 C.3     1  UNL1       -0.0492
     11 C          11.6075   -6.8316   -4.1348 C.3     1  UNL1       -0.0503
     12 C          12.8698   -6.9974   -5.0145 C.3     1  UNL1       -0.0439
     13 H          12.7676   -6.3150   -5.8695 H       1  UNL1        0.0298
     14 C          12.9173   -8.4199   -5.5813 C.3     1  UNL1       -0.0624
     15 C          14.2004   -6.6363   -4.3135 C.3     1  UNL1       -0.0505
     16 C          14.4493   -7.3640   -2.9864 C.3     1  UNL1       -0.0526
     17 C          15.6147   -6.7418   -2.2012 C.3     1  UNL1       -0.0505
     18 C          15.6410   -7.2058   -0.7278 C.3     1  UNL1       -0.0439
     19 H          14.6063   -7.1308   -0.3626 H       1  UNL1        0.0298
     20 C          16.4489   -6.2350    0.1364 C.3     1  UNL1       -0.0624
     21 C          16.0479   -8.6850   -0.5463 C.3     1  UNL1       -0.0505
     22 C          17.5205   -9.0138   -0.2687 C.3     1  UNL1       -0.0526
     23 C          18.4857   -8.6814   -1.4089 C.3     1  UNL1       -0.0507
     24 C          19.9396   -9.0809   -1.0812 C.3     1  UNL1       -0.0467
     25 C          20.9065   -8.4066   -2.0568 C.3     1  UNL1       -0.0627
     26 C          20.1433  -10.5968   -1.1215 C.3     1  UNL1       -0.0627
     27 C          10.4822   -7.1718   -0.8708 C.3     1  UNL1       -0.0091
     28 C          10.4424   -7.5497    0.6016 C.3     1  UNL1       -0.0202
     29 C           9.4411   -6.7389    1.3797 C.ar    1  UNL1        0.0011
     30 C           9.0726   -7.1093    2.6942 C.ar    1  UNL1       -0.0021
     31 C           9.6611   -8.3326    3.3505 C.3     1  UNL1       -0.0359
     32 C           8.1230   -6.3232    3.3730 C.ar    1  UNL1        0.1234
     33 O           7.6748   -6.6831    4.6193 O.3     1  UNL1       -0.5062
     34 H           6.8028   -3.2470    3.4660 H       1  UNL1        0.0279
     35 H           6.6909   -4.4905    4.6853 H       1  UNL1        0.0279
     36 H           5.5883   -4.5459    3.2942 H       1  UNL1        0.0279
     37 H           6.3432   -3.3935    1.1375 H       1  UNL1        0.0279
     38 H           7.3947   -3.6129   -0.2359 H       1  UNL1        0.0279
     39 H           7.9769   -2.6755    1.1587 H       1  UNL1        0.0279
     40 H          11.6347   -3.8710   -0.7085 H       1  UNL1        0.0268
     41 H          12.5933   -5.3664   -0.7988 H       1  UNL1        0.0268
     42 H          11.6491   -4.9788    0.6416 H       1  UNL1        0.0268
     43 H           9.9882   -4.2132   -2.6000 H       1  UNL1        0.0304
     44 H           9.3976   -5.7979   -2.9858 H       1  UNL1        0.0304
     45 H          12.3918   -5.1579   -2.9752 H       1  UNL1        0.0267
     46 H          11.3683   -4.7216   -4.3189 H       1  UNL1        0.0267
     47 H          10.7214   -7.0103   -4.7585 H       1  UNL1        0.0268
     48 H          11.5929   -7.6149   -3.3751 H       1  UNL1        0.0268
     49 H          13.7805   -8.5477   -6.2428 H       1  UNL1        0.0232
     50 H          12.0165   -8.6319   -6.1674 H       1  UNL1        0.0232
     51 H          12.9828   -9.1696   -4.7862 H       1  UNL1        0.0232
     52 H          14.2211   -5.5524   -4.1476 H       1  UNL1        0.0268
     53 H          15.0367   -6.8424   -4.9941 H       1  UNL1        0.0268
     54 H          14.6498   -8.4224   -3.1825 H       1  UNL1        0.0265
     55 H          13.5530   -7.3172   -2.3629 H       1  UNL1        0.0265
     56 H          15.4997   -5.6504   -2.2186 H       1  UNL1        0.0268
     57 H          16.5602   -6.9648   -2.7055 H       1  UNL1        0.0268
     58 H          16.4541   -6.5563    1.1830 H       1  UNL1        0.0232
     59 H          16.0028   -5.2345    0.1047 H       1  UNL1        0.0232
     60 H          17.4836   -6.1398   -0.2032 H       1  UNL1        0.0232
     61 H          15.7032   -9.2855   -1.3953 H       1  UNL1        0.0268
     62 H          15.4845   -9.0629    0.3187 H       1  UNL1        0.0268
     63 H          17.5711  -10.0882   -0.0567 H       1  UNL1        0.0265
     64 H          17.8467   -8.5126    0.6500 H       1  UNL1        0.0265
     65 H          18.1585   -9.1768   -2.3312 H       1  UNL1        0.0268
     66 H          18.4581   -7.6045   -1.6013 H       1  UNL1        0.0268
     67 H          20.1868   -8.7267   -0.0722 H       1  UNL1        0.0295
     68 H          20.7062   -8.7089   -3.0900 H       1  UNL1        0.0232
     69 H          21.9433   -8.6688   -1.8198 H       1  UNL1        0.0232
     70 H          20.8200   -7.3164   -1.9976 H       1  UNL1        0.0232
     71 H          19.8876  -11.0048   -2.1053 H       1  UNL1        0.0232
     72 H          19.5297  -11.1057   -0.3726 H       1  UNL1        0.0232
     73 H          21.1878  -10.8525   -0.9127 H       1  UNL1        0.0232
     74 H          11.3825   -7.6081   -1.3092 H       1  UNL1        0.0307
     75 H           9.6156   -7.6291   -1.3672 H       1  UNL1        0.0307
     76 H          11.4350   -7.4007    1.0438 H       1  UNL1        0.0316
     77 H          10.2017   -8.6173    0.6696 H       1  UNL1        0.0316
     78 H          10.6500   -8.5826    2.9567 H       1  UNL1        0.0279
     79 H           8.9962   -9.1895    3.2050 H       1  UNL1        0.0279
     80 H           9.8096   -8.1703    4.4235 H       1  UNL1        0.0279
     81 H           7.7829   -7.6391    4.7285 H       1  UNL1        0.2922
@<TRIPOS>BOND
     1     1     2    1
     2     2     3   ar
     3     3     4    1
     4     3     5   ar
     5     5     6    1
     6     6     7    1
     7     7     8    1
     8     7     9    1
     9     9    10    1
    10    10    11    1
    11    12    14    1
    12    12    15    1
    13    15    16    1
    14    16    17    1
    15    18    20    1
    16    18    21    1
    17    21    22    1
    18    22    23    1
    19    23    24    1
    20    24    25    1
    21    24    26    1
    22     7    27    1
    23    27    28    1
    24    28    29    1
    25     5    29   ar
    26    29    30   ar
    27    30    31    1
    28    30    32   ar
    29     2    32   ar
    30    32    33    1
    31    18    19    1
    32    18    17    1
    33    12    13    1
    34    12    11    1
    35     1    34    1
    36     1    35    1
    37     1    36    1
    38     4    37    1
    39     4    38    1
    40     4    39    1
    41     8    40    1
    42     8    41    1
    43     8    42    1
    44     9    43    1
    45     9    44    1
    46    10    45    1
    47    10    46    1
    48    11    47    1
    49    11    48    1
    50    14    49    1
    51    14    50    1
    52    14    51    1
    53    15    52    1
    54    15    53    1
    55    16    54    1
    56    16    55    1
    57    17    56    1
    58    17    57    1
    59    20    58    1
    60    20    59    1
    61    20    60    1
    62    21    61    1
    63    21    62    1
    64    22    63    1
    65    22    64    1
    66    23    65    1
    67    23    66    1
    68    24    67    1
    69    25    68    1
    70    25    69    1
    71    25    70    1
    72    26    71    1
    73    26    72    1
    74    26    73    1
    75    27    74    1
    76    27    75    1
    77    28    76    1
    78    28    77    1
    79    31    78    1
    80    31    79    1
    81    31    80    1
    82    33    81    1
