@<TRIPOS>MOLECULE
*****
 43 45 0 0 0
SMALL
GASTEIGER

@<TRIPOS>ATOM
      1 C           2.7462   -0.0128    1.4841 C.3     1  UNL1       -0.0606
      2 C           2.6479   -0.1955   -0.0297 C.3     1  UNL1       -0.0224
      3 H           1.5984    0.0034   -0.2920 H       1  UNL1        0.0317
      4 C           2.9652   -1.6380   -0.4323 C.3     1  UNL1       -0.0328
      5 C           2.6900   -1.8651   -1.9139 C.3     1  UNL1        0.0151
      6 N           3.2886   -0.8644   -2.8005 N.am    1  UNL1       -0.2989
      7 C           3.2163    0.5411   -2.3608 C.3     1  UNL1        0.0335
      8 C           3.5194    0.7854   -0.8555 C.3     1  UNL1        0.0429
      9 H           3.1657    1.7987   -0.6420 H       1  UNL1        0.0518
     10 N           4.9474    0.6574   -0.4930 N.pl3   1  UNL1       -0.3128
     11 C           5.9862    0.3920   -1.4799 C.3     1  UNL1        0.0024
     12 C           5.4511    1.4455    0.5467 C.ar    1  UNL1        0.1338
     13 N           6.2023    0.8059    1.4830 N.ar    1  UNL1       -0.2200
     14 C           6.6877    1.4973    2.5294 C.ar    1  UNL1        0.1204
     15 N           6.5472    2.8049    2.7912 N.ar    1  UNL1       -0.2178
     16 C           5.8423    3.4161    1.8300 C.ar    1  UNL1        0.1432
     17 C           5.2783    2.8386    0.7003 C.ar    1  UNL1        0.0585
     18 C           4.6820    3.9090   -0.0321 C.ar    1  UNL1       -0.0318
     19 C           4.8666    5.0738    0.6837 C.ar    1  UNL1        0.0042
     20 N           5.5689    4.7558    1.8166 N.ar    1  UNL1       -0.3457
     21 C           3.4434   -1.2470   -4.1364 C.2     1  UNL1        0.2295
     22 O           3.2545   -2.4091   -4.5075 O.2     1  UNL1       -0.2745
     23 C           3.8315   -0.2061   -5.1621 C.3     1  UNL1        0.1112
     24 C           5.2664    0.0600   -5.1134 C.1     1  UNL1        0.0719
     25 N           6.3966    0.3201   -5.0667 N.1     1  UNL1       -0.1961
     26 H           3.7031   -0.3631    1.8805 H       1  UNL1        0.0233
     27 H           1.9612   -0.5902    1.9852 H       1  UNL1        0.0233
     28 H           2.6107    1.0373    1.7624 H       1  UNL1        0.0233
     29 H           2.3583   -2.3383    0.1540 H       1  UNL1        0.0284
     30 H           4.0143   -1.8719   -0.2132 H       1  UNL1        0.0284
     31 H           1.6084   -1.8413   -2.0979 H       1  UNL1        0.0465
     32 H           3.0388   -2.8669   -2.1893 H       1  UNL1        0.0465
     33 H           2.1893    0.8652   -2.5750 H       1  UNL1        0.0483
     34 H           3.8690    1.1679   -2.9731 H       1  UNL1        0.0483
     35 H           5.7557   -0.5054   -2.0589 H       1  UNL1        0.0428
     36 H           6.9621    0.2018   -1.0158 H       1  UNL1        0.0428
     37 H           6.1001    1.2410   -2.1630 H       1  UNL1        0.0428
     38 H           7.2623    0.9229    3.2493 H       1  UNL1        0.1048
     39 H           4.1812    3.8400   -0.9876 H       1  UNL1        0.0640
     40 H           4.5729    6.0953    0.4817 H       1  UNL1        0.0807
     41 H           5.8718    5.3949    2.5373 H       1  UNL1        0.1668
     42 H           3.2391    0.7032   -5.0274 H       1  UNL1        0.0513
     43 H           3.5598   -0.5932   -6.1517 H       1  UNL1        0.0513
@<TRIPOS>BOND
     1     2     4    1
     2     4     5    1
     3     5     6    1
     4     6     7    1
     5     7     8    1
     6     8     9    1
     7     2     8    1
     8     8    10    1
     9    10    11    1
    10    10    12    1
    11    12    13   ar
    12    13    14   ar
    13    14    15   ar
    14    15    16   ar
    15    16    17   ar
    16    12    17   ar
    17    17    18   ar
    18    18    19   ar
    19    19    20   ar
    20    16    20   ar
    21     6    21   am
    22    21    22    2
    23    21    23    1
    24    23    24    1
    25    24    25    3
    26     2     3    1
    27     2     1    1
    28     1    26    1
    29     1    27    1
    30     1    28    1
    31     4    29    1
    32     4    30    1
    33     5    31    1
    34     5    32    1
    35     7    33    1
    36     7    34    1
    37    11    35    1
    38    11    36    1
    39    11    37    1
    40    14    38    1
    41    18    39    1
    42    19    40    1
    43    20    41    1
    44    23    42    1
    45    23    43    1
