@<TRIPOS>MOLECULE
*****
 48 47 0 0 0
SMALL
GASTEIGER

@<TRIPOS>ATOM
      1 C           2.1235    0.3788    1.3590 C.3     1  UNL1       -0.0618
      2 C           3.3141   -0.3848    1.9234 C.3     1  UNL1       -0.0373
      3 C           4.3973   -0.5410    0.8927 C.2     1  UNL1       -0.0843
      4 C           5.7118   -0.3240    1.0497 C.2     1  UNL1       -0.0657
      5 C           6.3914    0.0650    2.2625 C.2     1  UNL1       -0.0621
      6 C           6.3749   -0.6581    3.3926 C.2     1  UNL1       -0.0618
      7 C           7.1127   -0.2808    4.5777 C.2     1  UNL1       -0.0618
      8 C           7.1566   -1.0409    5.6825 C.2     1  UNL1       -0.0621
      9 C           7.8709   -0.6978    6.8925 C.2     1  UNL1       -0.0657
     10 C           9.0995   -0.1587    6.9287 C.2     1  UNL1       -0.0840
     11 C           9.8344    0.1693    8.1974 C.3     1  UNL1       -0.0345
     12 C          11.2025   -0.5158    8.2432 C.3     1  UNL1       -0.0496
     13 C          11.9696   -0.1377    9.5122 C.3     1  UNL1       -0.0528
     14 C          13.3585   -0.7786    9.5380 C.3     1  UNL1       -0.0530
     15 C          14.1320   -0.3766   10.7952 C.3     1  UNL1       -0.0526
     16 C          15.5281   -1.0002   10.8153 C.3     1  UNL1       -0.0430
     17 C          16.3019   -0.5894   12.0672 C.3     1  UNL1        0.0448
     18 C          17.6853   -1.1975   12.1022 C.2     1  UNL1        0.3047
     19 O          18.1642   -1.9201   11.2444 O.2     1  UNL1       -0.2510
     20 O          18.3686   -0.8485   13.2180 O.3     1  UNL1       -0.4806
     21 H           2.4177    1.3760    1.0146 H       1  UNL1        0.0233
     22 H           1.3520    0.4981    2.1264 H       1  UNL1        0.0233
     23 H           1.6760   -0.1556    0.5137 H       1  UNL1        0.0233
     24 H           3.6730    0.1444    2.8119 H       1  UNL1        0.0305
     25 H           2.9836   -1.3792    2.2433 H       1  UNL1        0.0305
     26 H           4.0606   -0.8527   -0.0956 H       1  UNL1        0.0572
     27 H           6.3615   -0.4260    0.1810 H       1  UNL1        0.0614
     28 H           6.9998    0.9639    2.1890 H       1  UNL1        0.0617
     29 H           5.8005   -1.5816    3.4333 H       1  UNL1        0.0618
     30 H           7.6513    0.6639    4.5462 H       1  UNL1        0.0618
     31 H           6.5969   -1.9734    5.7282 H       1  UNL1        0.0617
     32 H           7.3620   -0.9536    7.8201 H       1  UNL1        0.0614
     33 H           9.6187    0.0727    6.0006 H       1  UNL1        0.0572
     34 H           9.2464   -0.1232    9.0758 H       1  UNL1        0.0307
     35 H           9.9652    1.2569    8.2469 H       1  UNL1        0.0307
     36 H          11.7908   -0.2275    7.3627 H       1  UNL1        0.0268
     37 H          11.0752   -1.6049    8.2011 H       1  UNL1        0.0268
     38 H          12.0698    0.9532    9.5683 H       1  UNL1        0.0265
     39 H          11.4005   -0.4559   10.3941 H       1  UNL1        0.0265
     40 H          13.9211   -0.4710    8.6481 H       1  UNL1        0.0265
     41 H          13.2612   -1.8703    9.4981 H       1  UNL1        0.0265
     42 H          13.5751   -0.6927   11.6857 H       1  UNL1        0.0265
     43 H          14.2185    0.7160   10.8389 H       1  UNL1        0.0265
     44 H          16.0837   -0.6919    9.9208 H       1  UNL1        0.0270
     45 H          15.4457   -2.0935   10.7738 H       1  UNL1        0.0270
     46 H          15.7602   -0.9201   12.9603 H       1  UNL1        0.0377
     47 H          16.4079    0.5008   12.0950 H       1  UNL1        0.0377
     48 H          17.8676   -0.2660   13.8193 H       1  UNL1        0.2951
@<TRIPOS>BOND
     1     1     2    1
     2     2     3    1
     3     3     4    2
     4     4     5    1
     5     5     6    2
     6     6     7    1
     7     7     8    2
     8     8     9    1
     9     9    10    2
    10    10    11    1
    11    11    12    1
    12    12    13    1
    13    13    14    1
    14    14    15    1
    15    15    16    1
    16    16    17    1
    17    17    18    1
    18    18    19    2
    19    18    20    1
    20     1    21    1
    21     1    22    1
    22     1    23    1
    23     2    24    1
    24     2    25    1
    25     3    26    1
    26     4    27    1
    27     5    28    1
    28     6    29    1
    29     7    30    1
    30     8    31    1
    31     9    32    1
    32    10    33    1
    33    11    34    1
    34    11    35    1
    35    12    36    1
    36    12    37    1
    37    13    38    1
    38    13    39    1
    39    14    40    1
    40    14    41    1
    41    15    42    1
    42    15    43    1
    43    16    44    1
    44    16    45    1
    45    17    46    1
    46    17    47    1
    47    20    48    1
