@<TRIPOS>MOLECULE
*****
 78 83 0 0 0
SMALL
GASTEIGER

@<TRIPOS>ATOM
      1 C           2.7394   -0.2737   -1.9559 C.3     1  UNL1       -0.0556
      2 C           4.0608   -0.2189   -1.1560 C.3     1  UNL1       -0.0072
      3 C           4.0089   -1.3533   -0.0784 C.3     1  UNL1       -0.0367
      4 C           4.0089   -2.7627   -0.6580 C.3     1  UNL1        0.0107
      5 C           5.1562   -2.9515   -1.6171 C.2     1  UNL1        0.1561
      6 O           5.6161   -4.0619   -1.8740 O.2     1  UNL1       -0.2927
      7 C           5.6892   -1.7644   -2.3265 C.2     1  UNL1       -0.0194
      8 C           5.1828   -0.5325   -2.1368 C.2     1  UNL1       -0.0601
      9 C           5.6842    0.6232   -2.9515 C.3     1  UNL1       -0.0305
     10 C           6.2497    1.6924   -2.0416 C.3     1  UNL1       -0.0459
     11 C           5.2955    2.2002   -0.9440 C.3     1  UNL1       -0.0337
     12 C           4.2936    1.1515   -0.3781 C.3     1  UNL1       -0.0288
     13 C           3.0127    1.8284    0.1354 C.3     1  UNL1       -0.0485
     14 C           2.3173    2.7603   -0.8590 C.3     1  UNL1       -0.0435
     15 C           3.2424    3.7125   -1.6801 C.3     1  UNL1        0.0111
     16 C           3.0963    3.4203   -3.1854 C.3     1  UNL1       -0.0558
     17 C           4.7162    3.6135   -1.2276 C.3     1  UNL1       -0.0289
     18 C           4.7886    4.5537    0.0124 C.3     1  UNL1       -0.0458
     19 C           3.5376    5.4478   -0.0136 C.3     1  UNL1       -0.0118
     20 C           2.9404    5.2304   -1.3998 C.3     1  UNL1        0.1323
     21 O           3.6224    6.0663   -2.3388 O.3     1  UNL1       -0.3760
     22 C           1.5118    5.5469   -1.5079 C.1     1  UNL1       -0.0616
     23 C           0.2529    5.6445   -1.8330 C.1     1  UNL1       -0.0565
     24 C          -1.2147    5.7582   -2.2120 C.ar    1  UNL1        0.1056
     25 C          -2.1073    4.8603   -1.7775 C.ar    1  UNL1        0.0326
     26 N          -3.4658    4.9994   -2.0032 N.ar    1  UNL1       -0.2703
     27 C1*        -4.4380    4.0408   -1.4947 C.3     1  UNL1        0.1680
     28 O4*        -3.8329    3.0693   -0.6091 O.3     1  UNL1       -0.3456
     29 C4*        -4.3295    1.7628   -0.9798 C.3     1  UNL1        0.1126
     30 H4*        -3.5580    1.2772   -1.5908 H       1  UNL1        0.0647
     31 C5*        -4.5824    0.9261    0.2746 C.3     1  UNL1        0.0730
     32 O5*        -3.3425    0.4876    0.8259 O.3     1  UNL1       -0.3924
     33 C3*        -5.6003    2.0165   -1.7882 C.3     1  UNL1        0.1135
     34 H3*        -6.4505    2.2498   -1.1354 H       1  UNL1        0.0647
     35 O3*        -5.9549    0.9537   -2.6664 O.3     1  UNL1       -0.3864
     36 C2*        -5.1975    3.2512   -2.5770 C.3     1  UNL1        0.1286
     37 H2*        -6.0499    3.7906   -2.9990 H       1  UNL1        0.0665
     38 O2*        -4.3534    2.8510   -3.6705 O.3     1  UNL1       -0.3847
     39 C          -3.9800    6.0776   -2.7093 C.ar    1  UNL1        0.3315
     40 O          -5.1828    6.2779   -2.8708 O.2     1  UNL1       -0.2464
     41 N          -3.0586    6.9582   -3.2074 N.ar    1  UNL1       -0.2739
     42 H          -3.4163    7.7576   -3.7054 H       1  UNL1        0.1735
     43 C          -1.7095    6.9279   -2.9815 C.ar    1  UNL1        0.2694
     44 O          -0.9764    7.8291   -3.3756 O.2     1  UNL1       -0.2664
     45 H           2.6422   -1.2061   -2.5247 H       1  UNL1        0.0238
     46 H           2.6701    0.5268   -2.6918 H       1  UNL1        0.0238
     47 H           1.8625   -0.2194   -1.3026 H       1  UNL1        0.0238
     48 H           3.1300   -1.2289    0.5659 H       1  UNL1        0.0278
     49 H           4.8875   -1.2741    0.5781 H       1  UNL1        0.0278
     50 H           3.0731   -2.9875   -1.1783 H       1  UNL1        0.0345
     51 H           4.1230   -3.4833    0.1596 H       1  UNL1        0.0345
     52 H           6.4777   -1.9709   -3.0423 H       1  UNL1        0.0652
     53 H           4.8813    1.0188   -3.5763 H       1  UNL1        0.0310
     54 H           6.4699    0.3035   -3.6477 H       1  UNL1        0.0310
     55 H           6.6324    2.5205   -2.6493 H       1  UNL1        0.0271
     56 H           7.1364    1.2703   -1.5456 H       1  UNL1        0.0271
     57 H           5.9955    2.3858   -0.1119 H       1  UNL1        0.0307
     58 H           4.7972    0.8379    0.5509 H       1  UNL1        0.0312
     59 H           3.2673    2.4144    1.0279 H       1  UNL1        0.0268
     60 H           2.2974    1.0832    0.5022 H       1  UNL1        0.0268
     61 H           1.5828    3.3281   -0.2757 H       1  UNL1        0.0272
     62 H           1.6989    2.1691   -1.5423 H       1  UNL1        0.0272
     63 H           3.3105    2.3803   -3.4171 H       1  UNL1        0.0236
     64 H           3.7787    4.0256   -3.7914 H       1  UNL1        0.0236
     65 H           2.0768    3.6220   -3.5321 H       1  UNL1        0.0236
     66 H           5.3479    4.0906   -1.9898 H       1  UNL1        0.0310
     67 H           5.6964    5.1663   -0.0485 H       1  UNL1        0.0269
     68 H           4.8415    4.0123    0.9623 H       1  UNL1        0.0269
     69 H           3.8062    6.4937    0.1724 H       1  UNL1        0.0303
     70 H           2.8492    5.1351    0.7807 H       1  UNL1        0.0303
     71 H           4.5389    6.1925   -2.0493 H       1  UNL1        0.2114
     72 H          -1.7862    4.0001   -1.1971 H       1  UNL1        0.0825
     73 H1*        -5.1617    4.5913   -0.8787 H       1  UNL1        0.0867
     74 H5*1       -5.0990    1.5177    1.0376 H       1  UNL1        0.0584
     75 H5*2       -5.1731    0.0352    0.0417 H       1  UNL1        0.0584
     76 H5*        -3.5304    0.1049    1.6999 H       1  UNL1        0.2095
     77 H3*        -6.1947    0.1781   -2.1293 H       1  UNL1        0.2100
     78 H2*        -4.7988    2.0721   -4.0613 H       1  UNL1        0.2101
@<TRIPOS>BOND
     1     2     3    1
     2     3     4    1
     3     4     5    1
     4     5     7    1
     5     7     8    2
     6     2     8    1
     7     8     9    1
     8     9    10    1
     9    10    11    1
    10    11    12    1
    11     2    12    1
    12    12    13    1
    13    13    14    1
    14    14    15    1
    15    15    17    1
    16    11    17    1
    17    17    18    1
    18    18    19    1
    19    19    20    1
    20    15    20    1
    21    22    23    3
    22    23    24    1
    23    24    25   ar
    24    25    26   ar
    25    26    27    1
    26    27    28    1
    27    28    29    1
    28    31    32    1
    29    29    33    1
    30    33    34    1
    31    33    35    1
    32    33    36    1
    33    36    37    1
    34    27    36    1
    35    36    38    1
    36    26    39   ar
    37    39    40    2
    38    39    41   ar
    39    41    42    1
    40    41    43   ar
    41    24    43   ar
    42    43    44    2
    43     1     2    1
    44     5     6    2
    45    15    16    1
    46    20    21    1
    47    20    22    1
    48    29    31    1
    49    29    30    1
    50     1    45    1
    51     1    46    1
    52     1    47    1
    53     3    48    1
    54     3    49    1
    55     4    50    1
    56     4    51    1
    57     7    52    1
    58     9    53    1
    59     9    54    1
    60    10    55    1
    61    10    56    1
    62    11    57    1
    63    12    58    1
    64    13    59    1
    65    13    60    1
    66    14    61    1
    67    14    62    1
    68    16    63    1
    69    16    64    1
    70    16    65    1
    71    17    66    1
    72    18    67    1
    73    18    68    1
    74    19    69    1
    75    19    70    1
    76    21    71    1
    77    25    72    1
    78    27    73    1
    79    31    74    1
    80    31    75    1
    81    32    76    1
    82    35    77    1
    83    38    78    1
