@<TRIPOS>MOLECULE
*****
 79 80 0 0 0
SMALL
GASTEIGER

@<TRIPOS>ATOM
      1 C           0.9835   -0.6071    0.2486 C.3     1  UNL1       -0.0653
      2 C           2.1875   -1.4908    0.5420 C.3     1  UNL1       -0.0559
      3 C           3.3016   -1.2573   -0.4760 C.3     1  UNL1       -0.0533
      4 C           4.5751   -2.0408   -0.1373 C.3     1  UNL1       -0.0531
      5 C           5.6501   -1.7705   -1.1903 C.3     1  UNL1       -0.0531
      6 C           7.0509   -2.2372   -0.7994 C.3     1  UNL1       -0.0531
      7 C           7.2377   -3.7584   -0.7462 C.3     1  UNL1       -0.0531
      8 C           8.7351   -4.0814   -0.7760 C.3     1  UNL1       -0.0531
      9 C           9.0637   -5.5748   -0.6836 C.3     1  UNL1       -0.0531
     10 C          10.5510   -5.7792   -0.9926 C.3     1  UNL1       -0.0531
     11 C          11.0415   -7.2156   -0.7946 C.3     1  UNL1       -0.0531
     12 C          12.5106   -7.3155   -1.2220 C.3     1  UNL1       -0.0531
     13 C          13.1208   -8.6998   -0.9925 C.3     1  UNL1       -0.0530
     14 C          14.5879   -8.7085   -1.4391 C.3     1  UNL1       -0.0522
     15 C          15.2360  -10.0889   -1.3135 C.3     1  UNL1       -0.0422
     16 C          16.7088  -10.0420   -1.7347 C.3     1  UNL1        0.0095
     17 C          17.2711  -11.3922   -1.8789 C.1     1  UNL1       -0.0968
     18 C          17.7058  -12.6051   -2.0789 C.1     1  UNL1       -0.0615
     19 C          18.2124  -14.0191   -2.3122 C.2     1  UNL1        0.0818
     20 C          19.4768  -14.2459   -2.6813 C.2     1  UNL1        0.0205
     21 N          19.9643  -15.4828   -3.0648 N.am    1  UNL1       -0.2497
     22 C1*        21.3325  -15.6715   -3.5312 C.3     1  UNL1        0.1339
     23 C2*        22.2730  -14.4825   -3.6081 C.3     1  UNL1        0.0193
     24 C3*        23.6057  -15.1893   -3.7513 C.3     1  UNL1        0.0874
     25 H3*        23.7837  -15.4471   -4.8016 H       1  UNL1        0.0621
     26 O3*        24.6752  -14.3592   -3.3253 O.3     1  UNL1       -0.3890
     27 C4*        23.4313  -16.4446   -2.8869 C.3     1  UNL1        0.1098
     28 H4*        23.9400  -16.3608   -1.9202 H       1  UNL1        0.0646
     29 C5*        23.9037  -17.7078   -3.6172 C.3     1  UNL1        0.0729
     30 O5*        23.9507  -18.8062   -2.7088 O.3     1  UNL1       -0.3924
     31 O4*        22.0122  -16.5460   -2.6144 O.3     1  UNL1       -0.3502
     32 C          19.1428  -16.6076   -3.1664 C.2     1  UNL1        0.2289
     33 O          19.4987  -17.6572   -3.7082 O.2     1  UNL1       -0.2747
     34 C          17.7722  -16.5214   -2.5617 C.3     1  UNL1        0.0882
     35 C          17.2654  -15.1551   -2.2419 C.2     1  UNL1        0.1813
     36 O          16.0933  -14.9794   -1.9066 O.2     1  UNL1       -0.2908
     37 H           0.1843   -0.7991    0.9711 H       1  UNL1        0.0230
     38 H           0.5895   -0.7976   -0.7549 H       1  UNL1        0.0230
     39 H           1.2515    0.4528    0.3148 H       1  UNL1        0.0230
     40 H           1.8800   -2.5424    0.5211 H       1  UNL1        0.0263
     41 H           2.5506   -1.2759    1.5535 H       1  UNL1        0.0263
     42 H           3.5378   -0.1861   -0.5121 H       1  UNL1        0.0265
     43 H           2.9490   -1.5403   -1.4755 H       1  UNL1        0.0265
     44 H           4.9354   -1.7364    0.8525 H       1  UNL1        0.0265
     45 H           4.3566   -3.1138   -0.0915 H       1  UNL1        0.0265
     46 H           5.7057   -0.6890   -1.3698 H       1  UNL1        0.0265
     47 H           5.3575   -2.2281   -2.1431 H       1  UNL1        0.0265
     48 H           7.7456   -1.8185   -1.5390 H       1  UNL1        0.0265
     49 H           7.3321   -1.8014    0.1674 H       1  UNL1        0.0265
     50 H           6.7472   -4.2304   -1.6053 H       1  UNL1        0.0265
     51 H           6.7768   -4.1631    0.1619 H       1  UNL1        0.0265
     52 H           9.2378   -3.5558    0.0458 H       1  UNL1        0.0265
     53 H           9.1551   -3.6824   -1.7085 H       1  UNL1        0.0265
     54 H           8.8273   -5.9446    0.3207 H       1  UNL1        0.0265
     55 H           8.4576   -6.1441   -1.3976 H       1  UNL1        0.0265
     56 H          11.1478   -5.1113   -0.3584 H       1  UNL1        0.0265
     57 H          10.7372   -5.4771   -2.0315 H       1  UNL1        0.0265
     58 H          10.4326   -7.9085   -1.3865 H       1  UNL1        0.0265
     59 H          10.9369   -7.5002    0.2588 H       1  UNL1        0.0265
     60 H          13.0991   -6.5692   -0.6737 H       1  UNL1        0.0265
     61 H          12.5893   -7.0612   -2.2869 H       1  UNL1        0.0265
     62 H          12.5540   -9.4524   -1.5529 H       1  UNL1        0.0265
     63 H          13.0567   -8.9638    0.0697 H       1  UNL1        0.0265
     64 H          15.1540   -7.9824   -0.8429 H       1  UNL1        0.0266
     65 H          14.6483   -8.3804   -2.4845 H       1  UNL1        0.0266
     66 H          14.6861  -10.8041   -1.9384 H       1  UNL1        0.0274
     67 H          15.1600  -10.4477   -0.2794 H       1  UNL1        0.0274
     68 H          17.2875   -9.4709   -1.0000 H       1  UNL1        0.0397
     69 H          16.8040   -9.5195   -2.6940 H       1  UNL1        0.0397
     70 H          20.1573  -13.4021   -2.7366 H       1  UNL1        0.0799
     71 H1*        21.2911  -16.1719   -4.5092 H       1  UNL1        0.0814
     72 H2*1       22.2771  -13.8908   -2.6845 H       1  UNL1        0.0333
     73 H2*2       22.0547  -13.8073   -4.4406 H       1  UNL1        0.0333
     74 H3*        24.5917  -14.2110   -2.3659 H       1  UNL1        0.2099
     75 H5*1       24.9098  -17.5742   -4.0259 H       1  UNL1        0.0584
     76 H5*2       23.2139  -17.9679   -4.4277 H       1  UNL1        0.0584
     77 H5*        23.8512  -19.6192   -3.2336 H       1  UNL1        0.2095
     78 H          17.7756  -17.1096   -1.6380 H       1  UNL1        0.0440
     79 H          17.0721  -16.9702   -3.2758 H       1  UNL1        0.0440
@<TRIPOS>BOND
     1     1     2    1
     2     2     3    1
     3     3     4    1
     4     4     5    1
     5     5     6    1
     6     6     7    1
     7     7     8    1
     8     8     9    1
     9     9    10    1
    10    10    11    1
    11    11    12    1
    12    12    13    1
    13    13    14    1
    14    14    15    1
    15    15    16    1
    16    16    17    1
    17    17    18    3
    18    18    19    1
    19    19    20    2
    20    20    21    1
    21    21    22    1
    22    22    23    1
    23    23    24    1
    24    24    27    1
    25    27    28    1
    26    27    29    1
    27    29    30    1
    28    27    31    1
    29    22    31    1
    30    21    32   am
    31    32    33    2
    32    32    34    1
    33    34    35    1
    34    19    35    1
    35    35    36    2
    36    24    26    1
    37    24    25    1
    38     1    37    1
    39     1    38    1
    40     1    39    1
    41     2    40    1
    42     2    41    1
    43     3    42    1
    44     3    43    1
    45     4    44    1
    46     4    45    1
    47     5    46    1
    48     5    47    1
    49     6    48    1
    50     6    49    1
    51     7    50    1
    52     7    51    1
    53     8    52    1
    54     8    53    1
    55     9    54    1
    56     9    55    1
    57    10    56    1
    58    10    57    1
    59    11    58    1
    60    11    59    1
    61    12    60    1
    62    12    61    1
    63    13    62    1
    64    13    63    1
    65    14    64    1
    66    14    65    1
    67    15    66    1
    68    15    67    1
    69    16    68    1
    70    16    69    1
    71    20    70    1
    72    22    71    1
    73    23    72    1
    74    23    73    1
    75    26    74    1
    76    29    75    1
    77    29    76    1
    78    30    77    1
    79    34    78    1
    80    34    79    1
