WARNING: damped steplength 0.0102746 to 0.00290807
WARNING: damped steplength 0.0321574 to 0.0059759
WARNING: damped steplength 0.00828628 to 0.00575641
@<TRIPOS>MOLECULE
*****
 151 151 0 0 0
SMALL
GASTEIGER

@<TRIPOS>ATOM
      1 C          18.1348   21.4573    8.6249 C.3     1  LIG1       -0.0653
      2 C          18.9656   22.5048    9.7371 C.3     1  LIG1       -0.0559
      3 C          20.5412   22.2366   10.2268 C.3     1  LIG1       -0.0533
      4 C          20.5953   20.3822   11.2605 C.3     1  LIG1       -0.0531
      5 C          20.2517   18.7338   10.2518 C.3     1  LIG1       -0.0531
      6 C          20.3295   17.3663   11.1407 C.3     1  LIG1       -0.0531
      7 C          20.4093   15.6797    9.7052 C.3     1  LIG1       -0.0531
      8 C          20.1169   14.1270   10.5242 C.3     1  LIG1       -0.0531
      9 C          21.6167   14.1845   10.8239 C.3     1  LIG1       -0.0531
     10 C          22.2862   15.3746   12.1599 C.3     1  LIG1       -0.0531
     11 C          21.1725   15.5780   13.7972 C.3     1  LIG1       -0.0531
     12 C          20.9396   14.3591   14.9273 C.3     1  LIG1       -0.0530
     13 C          20.4220   12.8187   14.6100 C.3     1  LIG1       -0.0526
     14 C          19.2416   11.9954   13.9965 C.3     1  LIG1       -0.0430
     15 C          18.4715   12.0065   12.5942 C.3     1  LIG1        0.0449
     16 C          19.1132   11.4448   11.1934 C.2     1  LIG1        0.3072
     17 O          19.6422   10.4247   10.8033 O.2     1  LIG1       -0.2509
     18 O          18.8885   12.3457   10.2523 O.3     1  LIG1       -0.4608
     19 C          19.6918   12.3735    9.0709 C.3     1  LIG1        0.1315
     20 C          21.1865   12.4489    9.2284 C.3     1  LIG1        0.1605
     21 H          21.2004   13.5113    9.1993 H       1  LIG1        0.0792
     22 C          21.8147   11.5964   10.4212 C.3     1  LIG1        0.0993
     23 O          21.4175   11.6820   11.8976 O.3     1  LIG1       -0.2828
     24 P          21.8511   13.0155   12.6998 P.3     1  LIG1        0.4752
     25 O          22.6193   13.3331   13.9296 O.2     1  LIG1       -0.2273
     26 O          23.1564   12.8676   11.8153 O.3     1  LIG1       -0.3025
     27 O          20.7203   14.4606   12.4352 O.3     1  LIG1       -0.2813
     28 C          19.7670   15.5261   11.8474 C.3     1  LIG1        0.0989
     29 C          19.1742   16.2055   10.6274 C.3     1  LIG1       -0.0063
     30 N          20.9032   17.2610    9.5816 N.4     1  LIG1        0.2385
     31 C          22.0631   17.3530    8.5256 C.3     1  LIG1       -0.0417
     32 C          19.2924   17.7272    8.2511 C.3     1  LIG1       -0.0417
     33 C          21.7025   18.8296   11.1652 C.3     1  LIG1       -0.0417
     34 O          21.9831   12.3624    8.0801 O.3     1  LIG1       -0.4555
     35 C          21.9320   13.4392    7.2382 C.2     1  LIG1        0.3075
     36 O          21.0408   14.2813    7.1782 O.2     1  LIG1       -0.2508
     37 C          23.1118   13.3963    6.3147 C.3     1  LIG1        0.0450
     38 C          24.4134   12.7385    6.8046 C.3     1  LIG1       -0.0430
     39 C          25.1249   13.4159    7.9895 C.3     1  LIG1       -0.0526
     40 C          24.2952   13.4394    9.2450 C.3     1  LIG1       -0.0530
     41 C          24.9208   14.1061   10.4640 C.3     1  LIG1       -0.0531
     42 C          25.3161   15.5460   10.2773 C.3     1  LIG1       -0.0529
     43 C          24.2420   16.3906    9.8409 C.3     1  LIG1       -0.0491
     44 C          24.6275   18.0074    9.6417 C.3     1  LIG1       -0.0080
     45 C          23.7848   19.0223    8.9011 C.3     1  LIG1        0.1455
     46 C          24.0108   20.4253    8.9471 C.3     1  LIG1       -0.0080
     47 C          24.9494   20.8348    7.8986 C.3     1  LIG1       -0.0491
     48 C          25.4675   22.2515    7.8087 C.3     1  LIG1       -0.0529
     49 C          26.1546   22.8980    9.0148 C.3     1  LIG1       -0.0531
     50 C          25.3157   23.0842   10.2813 C.3     1  LIG1       -0.0531
     51 C          24.1080   24.0133   10.1069 C.3     1  LIG1       -0.0533
     52 C          23.1117   23.7378    9.0841 C.3     1  LIG1       -0.0559
     53 C          22.6213   22.5340    9.5323 C.3     1  LIG1       -0.0653
     54 O          23.0865   18.7642    7.2546 O.3     1  LIG1       -0.3550
     55 C          21.1885   19.0009    7.3826 C.3     1  LIG1        0.0702
     56 C          20.7944   19.7060    9.3612 C.3     1  LIG1        0.0675
     57 C          19.0665   19.3661   10.3949 C.3     1  LIG1       -0.0424
     58 C          20.0989   20.6991    9.5572 C.3     1  LIG1       -0.0424
     59 N          22.7432   18.8514    9.7667 N.4     1  LIG1       -0.1517
     60 O          22.6807   17.4643   10.5271 O.3     1  LIG1       -0.3091
     61 H          18.1145   22.0164    7.7274 H       1  LIG1        0.0230
     62 H          17.3073   21.0235    9.1200 H       1  LIG1        0.0230
     63 H          18.5869   20.5355    8.1504 H       1  LIG1        0.0230
     64 H          18.5000   22.3740   10.7022 H       1  LIG1        0.0263
     65 H          19.4000   23.2633    9.1640 H       1  LIG1        0.0263
     66 H          21.1409   22.4387   11.0435 H       1  LIG1        0.0265
     67 H          21.0710   21.7147    8.7767 H       1  LIG1        0.0265
     68 H          19.9248   20.0986   12.0374 H       1  LIG1        0.0265
     69 H          21.5606   20.6456   11.4165 H       1  LIG1        0.0265
     70 H          20.2905   18.5576    8.9820 H       1  LIG1        0.0265
     71 H          19.3023   19.3727    9.1601 H       1  LIG1        0.0265
     72 H          19.7799   17.5967   12.0553 H       1  LIG1        0.0265
     73 H          21.1768   17.3575   11.7446 H       1  LIG1        0.0265
     74 H          20.2971   15.8600    8.6240 H       1  LIG1        0.0265
     75 H          18.9869   16.1230    9.0875 H       1  LIG1        0.0265
     76 H          18.9257   14.0159   10.7035 H       1  LIG1        0.0265
     77 H          19.5140   13.7340   11.7999 H       1  LIG1        0.0265
     78 H          22.3075   14.3017   10.0557 H       1  LIG1        0.0265
     79 H          20.9786   13.2543   11.1164 H       1  LIG1        0.0265
     80 H          21.9933   16.0757   11.4651 H       1  LIG1        0.0265
     81 H          23.1955   14.9150   12.3396 H       1  LIG1        0.0265
     82 H          19.8864   15.6744   13.5780 H       1  LIG1        0.0265
     83 H          21.2397   16.6372   13.7188 H       1  LIG1        0.0265
     84 H          20.5155   14.6957   15.8631 H       1  LIG1        0.0265
     85 H          21.8178   14.2018   15.6461 H       1  LIG1        0.0265
     86 H          20.1427   12.9220   15.6352 H       1  LIG1        0.0265
     87 H          21.2578   12.0278   14.5766 H       1  LIG1        0.0265
     88 H          18.5631   12.0144   14.8794 H       1  LIG1        0.0270
     89 H          19.7830   11.0538   13.8391 H       1  LIG1        0.0270
     90 H          18.1155   13.0471   12.5488 H       1  LIG1        0.0377
     91 H          17.5073   11.4655   12.5410 H       1  LIG1        0.0377
     92 H          19.2689   13.2505    8.5534 H       1  LIG1        0.0736
     93 H          19.5299   11.4968    8.5513 H       1  LIG1        0.0736
     94 H          22.8847   11.6182   10.4210 H       1  LIG1        0.0604
     95 H          21.5901   10.5870   10.2144 H       1  LIG1        0.0604
     96 H          23.8933   12.4486   12.2789 H       1  LIG1        0.2220
     97 H          20.4122   16.1754   12.2269 H       1  LIG1        0.0619
     98 H          18.8142   15.2035   12.0155 H       1  LIG1        0.0619
     99 H          18.2577   16.7951   10.7783 H       1  LIG1        0.0838
    100 H          18.8894   15.0019    9.7512 H       1  LIG1        0.0838
    101 H          22.1409   16.6865    7.7281 H       1  LIG1        0.0778
    102 H          23.0614   17.3113    8.7370 H       1  LIG1        0.0778
    103 H          22.1464   18.8016    8.4407 H       1  LIG1        0.0778
    104 H          19.5450   17.0887    7.4894 H       1  LIG1        0.0778
    105 H          19.2860   18.9852    7.8129 H       1  LIG1        0.0778
    106 H          18.3690   17.6911    8.7696 H       1  LIG1        0.0778
    107 H          22.8291   18.8233   11.5818 H       1  LIG1        0.0778
    108 H          21.4785   19.3188   12.3271 H       1  LIG1        0.0778
    109 H          22.4462   20.0229   10.6089 H       1  LIG1        0.0778
    110 H          23.3251   14.4165    5.9926 H       1  LIG1        0.0377
    111 H          22.7533   12.8447    5.4437 H       1  LIG1        0.0377
    112 H          25.1161   12.7528    5.9603 H       1  LIG1        0.0270
    113 H          24.2329   11.6806    7.0270 H       1  LIG1        0.0270
    114 H          25.3756   14.4371    7.7023 H       1  LIG1        0.0265
    115 H          26.0670   12.8959    8.1955 H       1  LIG1        0.0265
    116 H          24.0312   12.4162    9.4749 H       1  LIG1        0.0265
    117 H          23.3953   13.9645    8.9811 H       1  LIG1        0.0265
    118 H          25.7525   13.5093   10.8184 H       1  LIG1        0.0265
    119 H          24.2593   14.1112   11.2924 H       1  LIG1        0.0265
    120 H          25.9937   15.6022    9.4624 H       1  LIG1        0.0265
    121 H          25.7416   15.9621   11.1836 H       1  LIG1        0.0265
    122 H          23.5066   16.1159   10.5771 H       1  LIG1        0.0267
    123 H          23.7235   15.9751    8.9702 H       1  LIG1        0.0267
    124 H          25.2211   18.0144    8.7955 H       1  LIG1        0.0307
    125 H          24.8800   18.4134   10.6225 H       1  LIG1        0.0307
    126 H          24.1947   20.7815    9.9723 H       1  LIG1        0.0307
    127 H          23.0150   20.5839    8.4836 H       1  LIG1        0.0307
    128 H          24.4563   20.6126    6.9434 H       1  LIG1        0.0267
    129 H          25.7625   20.1460    8.0108 H       1  LIG1        0.0267
    130 H          24.7053   22.9048    7.4269 H       1  LIG1        0.0265
    131 H          26.1634   22.2403    6.9703 H       1  LIG1        0.0265
    132 H          26.5380   23.8898    8.7177 H       1  LIG1        0.0265
    133 H          27.0339   22.2951    9.2617 H       1  LIG1        0.0265
    134 H          25.9503   23.5177   11.0651 H       1  LIG1        0.0265
    135 H          25.0386   22.1186   10.7004 H       1  LIG1        0.0265
    136 H          24.4316   24.9656    9.7631 H       1  LIG1        0.0265
    137 H          23.5825   24.1070   11.0689 H       1  LIG1        0.0265
    138 H          23.3653   23.5644    8.0493 H       1  LIG1        0.0263
    139 H          22.2070   24.3206    9.0680 H       1  LIG1        0.0263
    140 H          23.0814   21.9846    8.8369 H       1  LIG1        0.0230
    141 H          21.7416   22.7712    8.9941 H       1  LIG1        0.0230
    142 H          22.7509   22.0305   10.5015 H       1  LIG1        0.0230
    143 H          20.8856   17.9389    7.4869 H       1  LIG1        0.0580
    144 H          20.6991   19.7783    7.0201 H       1  LIG1        0.0580
    145 H          17.9684   19.0482    9.8650 H       1  LIG1        0.0249
    146 H          18.9898   18.8944   11.5959 H       1  LIG1        0.0249
    147 H          18.8783   17.9308   10.1317 H       1  LIG1        0.0249
    148 H          19.8328   21.1442    8.6770 H       1  LIG1        0.0249
    149 H          21.4709   20.9260    9.8241 H       1  LIG1        0.0249
    150 H          19.3618   21.1636   10.7803 H       1  LIG1        0.0249
    151 H          22.6475   17.4151   11.5275 H       1  LIG1        0.2367
@<TRIPOS>BOND
     1     1     2    1
     2     2     3    1
     3     3     4    1
     4     4     5    1
     5     5     6    1
     6     6     7    1
     7     7     8    1
     8     8     9    1
     9     9    10    1
    10    10    11    1
    11    11    12    1
    12    12    13    1
    13    13    14    1
    14    14    15    1
    15    15    16    1
    16    16    17    2
    17    16    18    1
    18    18    19    1
    19    19    20    1
    20    20    21    1
    21    20    22    1
    22    22    23    1
    23    23    24    1
    24    24    25    2
    25    24    26    1
    26    24    27    1
    27    27    28    1
    28    28    29    1
    29    29    30    1
    30    30    31    1
    31    30    32    1
    32    30    33    1
    33    20    34    1
    34    34    35    1
    35    35    36    2
    36    35    37    1
    37    37    38    1
    38    38    39    1
    39    39    40    1
    40    40    41    1
    41    41    42    1
    42    42    43    1
    43    43    44    1
    44    44    45    1
    45    45    46    1
    46    46    47    1
    47    47    48    1
    48    48    49    1
    49    49    50    1
    50    50    51    1
    51    51    52    1
    52    52    53    1
    53    45    54    1
    54    54    55    1
    55    55    56    1
    56    56    57    1
    57    56    58    1
    58    56    59    1
    59    45    59    1
    60    59    60    1
    61     1    61    1
    62     1    62    1
    63     1    63    1
    64     2    64    1
    65     2    65    1
    66     3    66    1
    67     3    67    1
    68     4    68    1
    69     4    69    1
    70     5    70    1
    71     5    71    1
    72     6    72    1
    73     6    73    1
    74     7    74    1
    75     7    75    1
    76     8    76    1
    77     8    77    1
    78     9    78    1
    79     9    79    1
    80    10    80    1
    81    10    81    1
    82    11    82    1
    83    11    83    1
    84    12    84    1
    85    12    85    1
    86    13    86    1
    87    13    87    1
    88    14    88    1
    89    14    89    1
    90    15    90    1
    91    15    91    1
    92    19    92    1
    93    19    93    1
    94    22    94    1
    95    22    95    1
    96    26    96    1
    97    28    97    1
    98    28    98    1
    99    29    99    1
   100    29   100    1
   101    31   101    1
   102    31   102    1
   103    31   103    1
   104    32   104    1
   105    32   105    1
   106    32   106    1
   107    33   107    1
   108    33   108    1
   109    33   109    1
   110    37   110    1
   111    37   111    1
   112    38   112    1
   113    38   113    1
   114    39   114    1
   115    39   115    1
   116    40   116    1
   117    40   117    1
   118    41   118    1
   119    41   119    1
   120    42   120    1
   121    42   121    1
   122    43   122    1
   123    43   123    1
   124    44   124    1
   125    44   125    1
   126    46   126    1
   127    46   127    1
   128    47   128    1
   129    47   129    1
   130    48   130    1
   131    48   131    1
   132    49   132    1
   133    49   133    1
   134    50   134    1
   135    50   135    1
   136    51   136    1
   137    51   137    1
   138    52   138    1
   139    52   139    1
   140    53   140    1
   141    53   141    1
   142    53   142    1
   143    55   143    1
   144    55   144    1
   145    57   145    1
   146    57   146    1
   147    57   147    1
   148    58   148    1
   149    58   149    1
   150    58   150    1
   151    60   151    1
