@<TRIPOS>MOLECULE
*****
 75 78 0 0 0
SMALL
GASTEIGER

@<TRIPOS>ATOM
      1 C           3.5344    3.3191   -2.2803 C.3     1  LIG1       -0.0603
      2 C           2.7289    3.9799   -3.4047 C.3     1  LIG1       -0.0206
      3 C           1.3610    3.2850   -3.5097 C.3     1  LIG1       -0.0603
      4 C           3.4796    3.9988   -4.7666 C.3     1  LIG1        0.0576
      5 H           2.8136    4.4123   -5.5341 H       1  LIG1        0.0596
      6 O           3.8209    2.6709   -5.1613 O.3     1  LIG1       -0.3915
      7 C           4.7773    4.8383   -4.7417 C.3     1  LIG1       -0.0264
      8 C           5.4851    4.9094   -6.1155 C.3     1  LIG1       -0.0478
      9 C           6.8155    5.7359   -6.1476 C.3     1  LIG1       -0.0405
     10 H           7.1470    5.7365   -7.1955 H       1  LIG1        0.0301
     11 C           6.5127    7.1908   -5.7676 C.3     1  LIG1       -0.0621
     12 C           7.9440    5.0878   -5.2863 C.3     1  LIG1       -0.0328
     13 H           7.5296    4.9762   -4.2780 H       1  LIG1        0.0309
     14 C           8.2998    3.6696   -5.7599 C.3     1  LIG1       -0.0492
     15 C           9.5360    3.3289   -4.9469 C.3     1  LIG1       -0.0492
     16 C          10.3793    4.6037   -5.0303 C.3     1  LIG1       -0.0320
     17 C          11.4242    4.8019   -3.9138 C.3     1  LIG1       -0.0307
     18 C          12.5003    3.7086   -3.9323 C.3     1  LIG1       -0.0311
     19 C          13.3321    3.6705   -2.6847 C.2     1  LIG1       -0.0839
     20 C          13.0609    4.3389   -1.5576 C.2     1  LIG1       -0.0648
     21 C          13.9746    4.2040   -0.3576 C.3     1  LIG1       -0.0051
     22 C          13.1914    3.8607    0.9093 C.3     1  LIG1        0.0590
     23 H          12.7311    2.8704    0.8032 H       1  LIG1        0.0596
     24 O          14.0685    3.7968    2.0308 O.3     1  LIG1       -0.3915
     25 C          12.1089    4.9032    1.1673 C.3     1  LIG1       -0.0258
     26 C          11.1481    4.9979   -0.0162 C.3     1  LIG1       -0.0413
     27 C          11.8293    5.2499   -1.3970 C.3     1  LIG1       -0.0078
     28 C          12.3135    6.7163   -1.4783 C.3     1  LIG1       -0.0556
     29 C          10.7719    4.9222   -2.5206 C.3     1  LIG1       -0.0285
     30 C           9.5333    5.8482   -2.5445 C.3     1  LIG1       -0.0486
     31 C           9.3961    6.6583   -3.8373 C.3     1  LIG1       -0.0468
     32 C           9.3514    5.7872   -5.1221 C.3     1  LIG1       -0.0259
     33 C           9.7948    6.6539   -6.3161 C.3     1  LIG1       -0.0590
     34 H           2.9523    3.2896   -1.3518 H       1  LIG1        0.0233
     35 H           4.4462    3.8835   -2.0653 H       1  LIG1        0.0233
     36 H           3.8142    2.2904   -2.5291 H       1  LIG1        0.0233
     37 H           2.5344    5.0182   -3.1063 H       1  LIG1        0.0320
     38 H           1.4355    2.2721   -3.9173 H       1  LIG1        0.0233
     39 H           0.6837    3.8610   -4.1488 H       1  LIG1        0.0233
     40 H           0.8863    3.2036   -2.5244 H       1  LIG1        0.0233
     41 H           2.9961    2.1980   -5.3606 H       1  LIG1        0.2098
     42 H           5.4711    4.3962   -4.0215 H       1  LIG1        0.0290
     43 H           4.5379    5.8516   -4.4008 H       1  LIG1        0.0290
     44 H           4.7867    5.3497   -6.8403 H       1  LIG1        0.0269
     45 H           5.6822    3.8964   -6.4835 H       1  LIG1        0.0269
     46 H           5.5437    7.5164   -6.1611 H       1  LIG1        0.0233
     47 H           7.2470    7.8785   -6.1896 H       1  LIG1        0.0233
     48 H           6.4964    7.3313   -4.6841 H       1  LIG1        0.0233
     49 H           8.5280    3.6560   -6.8323 H       1  LIG1        0.0268
     50 H           7.5030    2.9452   -5.5669 H       1  LIG1        0.0268
     51 H          10.0597    2.4610   -5.3597 H       1  LIG1        0.0268
     52 H           9.2443    3.0850   -3.9208 H       1  LIG1        0.0268
     53 H          10.9327    4.5355   -5.9788 H       1  LIG1        0.0309
     54 H          11.9412    5.7464   -4.1346 H       1  LIG1        0.0309
     55 H          13.1603    3.8800   -4.7916 H       1  LIG1        0.0310
     56 H          12.0572    2.7172   -4.0676 H       1  LIG1        0.0310
     57 H          14.2142    3.0299   -2.7396 H       1  LIG1        0.0572
     58 H          14.5329    5.1371   -0.2122 H       1  LIG1        0.0335
     59 H          14.7402    3.4341   -0.5191 H       1  LIG1        0.0335
     60 H          14.4745    4.6727    2.1439 H       1  LIG1        0.2098
     61 H          12.5629    5.8798    1.3744 H       1  LIG1        0.0290
     62 H          11.5531    4.6401    2.0757 H       1  LIG1        0.0290
     63 H          10.4174    5.7863    0.1997 H       1  LIG1        0.0274
     64 H          10.5794    4.0586   -0.0539 H       1  LIG1        0.0274
     65 H          13.0503    6.9469   -0.7009 H       1  LIG1        0.0238
     66 H          11.4926    7.4281   -1.3481 H       1  LIG1        0.0238
     67 H          12.7902    6.9363   -2.4396 H       1  LIG1        0.0238
     68 H          10.3864    3.9218   -2.2710 H       1  LIG1        0.0312
     69 H           9.5217    6.5401   -1.6976 H       1  LIG1        0.0268
     70 H           8.6382    5.2290   -2.4076 H       1  LIG1        0.0268
     71 H          10.2391    7.3601   -3.8864 H       1  LIG1        0.0271
     72 H           8.5020    7.2851   -3.7686 H       1  LIG1        0.0271
     73 H           9.2068    7.5630   -6.4292 H       1  LIG1        0.0235
     74 H           9.7561    6.0956   -7.2571 H       1  LIG1        0.0235
     75 H          10.8331    6.9844   -6.1769 H       1  LIG1        0.0235
@<TRIPOS>BOND
     1     1     2    1
     2     2     3    1
     3     4     6    1
     4     4     7    1
     5     7     8    1
     6     8     9    1
     7     9    10    1
     8     9    11    1
     9    12    14    1
    10    14    15    1
    11    15    16    1
    12    16    17    1
    13    17    18    1
    14    18    19    1
    15    19    20    2
    16    20    21    1
    17    21    22    1
    18    22    25    1
    19    25    26    1
    20    26    27    1
    21    20    27    1
    22    27    29    1
    23    17    29    1
    24    29    30    1
    25    30    31    1
    26    31    32    1
    27    12    32    1
    28    16    32    1
    29     9    12    1
    30    12    13    1
    31    27    28    1
    32    32    33    1
    33     4     5    1
    34     4     2    1
    35    22    24    1
    36    22    23    1
    37     1    34    1
    38     1    35    1
    39     1    36    1
    40     2    37    1
    41     3    38    1
    42     3    39    1
    43     3    40    1
    44     6    41    1
    45     7    42    1
    46     7    43    1
    47     8    44    1
    48     8    45    1
    49    11    46    1
    50    11    47    1
    51    11    48    1
    52    14    49    1
    53    14    50    1
    54    15    51    1
    55    15    52    1
    56    16    53    1
    57    17    54    1
    58    18    55    1
    59    18    56    1
    60    19    57    1
    61    21    58    1
    62    21    59    1
    63    24    60    1
    64    25    61    1
    65    25    62    1
    66    26    63    1
    67    26    64    1
    68    28    65    1
    69    28    66    1
    70    28    67    1
    71    29    68    1
    72    30    69    1
    73    30    70    1
    74    31    71    1
    75    31    72    1
    76    33    73    1
    77    33    74    1
    78    33    75    1
