@<TRIPOS>MOLECULE
*****
 75 78 0 0 0
SMALL
GASTEIGER

@<TRIPOS>ATOM
      1 C           4.3172    8.8964   -7.4666 C.3     1  LIG1       -0.0603
      2 C           3.3825    8.4219   -6.3518 C.3     1  LIG1       -0.0206
      3 C           2.9192    6.9839   -6.6207 C.3     1  LIG1        0.0468
      4 O           1.9919    6.5477   -5.6353 O.3     1  LIG1       -0.3947
      5 C           4.0231    8.6118   -4.9568 C.3     1  LIG1       -0.0484
      6 C           5.3255    7.8284   -4.7224 C.3     1  LIG1       -0.0525
      7 C           5.8761    8.0705   -3.3003 C.3     1  LIG1       -0.0502
      8 C           7.1955    7.3197   -2.9933 C.3     1  LIG1       -0.0405
      9 H           7.0167    6.2656   -3.2581 H       1  LIG1        0.0301
     10 C           8.3136    7.7866   -3.9363 C.3     1  LIG1       -0.0621
     11 C           7.5751    7.2781   -1.4696 C.3     1  LIG1       -0.0328
     12 H           6.7908    6.6628   -1.0053 H       1  LIG1        0.0309
     13 C           8.8940    6.5272   -1.2271 C.3     1  LIG1       -0.0492
     14 C           9.1094    6.6574    0.2645 C.3     1  LIG1       -0.0492
     15 C           8.6875    8.1015    0.6056 C.3     1  LIG1       -0.0320
     16 C           8.0707    8.2531    2.0297 C.3     1  LIG1       -0.0307
     17 C           9.0452    7.7523    3.1123 C.3     1  LIG1       -0.0311
     18 C           8.4197    7.2136    4.3524 C.2     1  LIG1       -0.0839
     19 C           7.0904    7.0976    4.5715 C.2     1  LIG1       -0.0648
     20 C           6.6034    6.5275    5.8833 C.3     1  LIG1       -0.0051
     21 C           5.5155    5.4741    5.6781 C.3     1  LIG1        0.0590
     22 H           5.9339    4.6053    5.1553 H       1  LIG1        0.0596
     23 O           5.0315    5.0106    6.9363 O.3     1  LIG1       -0.3915
     24 C           4.3632    6.0581    4.8688 C.3     1  LIG1       -0.0258
     25 C           4.8512    6.5407    3.5051 C.3     1  LIG1       -0.0413
     26 C           6.0459    7.5473    3.5467 C.3     1  LIG1       -0.0078
     27 C           5.5356    8.9344    4.0030 C.3     1  LIG1       -0.0556
     28 C           6.6742    7.5907    2.0978 C.3     1  LIG1       -0.0285
     29 C           5.7318    8.1573    1.0050 C.3     1  LIG1       -0.0486
     30 C           6.4157    9.0966    0.0062 C.3     1  LIG1       -0.0468
     31 C           7.7417    8.5597   -0.5725 C.3     1  LIG1       -0.0259
     32 C           8.4262    9.7156   -1.3255 C.3     1  LIG1       -0.0590
     33 H           3.8326    8.8245   -8.4460 H       1  LIG1        0.0233
     34 H           5.2301    8.2948   -7.5099 H       1  LIG1        0.0233
     35 H           4.6048    9.9417   -7.3109 H       1  LIG1        0.0233
     36 H           2.4876    9.0607   -6.3717 H       1  LIG1        0.0320
     37 H           3.7584    6.2824   -6.6508 H       1  LIG1        0.0560
     38 H           2.4096    6.9246   -7.5887 H       1  LIG1        0.0560
     39 H           2.4605    6.4975   -4.7856 H       1  LIG1        0.2094
     40 H           3.2952    8.3398   -4.1836 H       1  LIG1        0.0269
     41 H           4.2239    9.6814   -4.8132 H       1  LIG1        0.0269
     42 H           6.0656    8.1453   -5.4629 H       1  LIG1        0.0265
     43 H           5.1534    6.7568   -4.8732 H       1  LIG1        0.0265
     44 H           5.1080    7.7668   -2.5800 H       1  LIG1        0.0268
     45 H           6.0318    9.1471   -3.1792 H       1  LIG1        0.0268
     46 H           8.0841    7.5113   -4.9706 H       1  LIG1        0.0233
     47 H           9.2741    7.3160   -3.7193 H       1  LIG1        0.0233
     48 H           8.4441    8.8705   -3.9121 H       1  LIG1        0.0233
     49 H           9.7409    6.9949   -1.7374 H       1  LIG1        0.0268
     50 H           8.8396    5.4796   -1.5388 H       1  LIG1        0.0268
     51 H          10.1554    6.4669    0.5278 H       1  LIG1        0.0268
     52 H           8.5066    5.9073    0.7846 H       1  LIG1        0.0268
     53 H           9.6029    8.7109    0.5899 H       1  LIG1        0.0309
     54 H           7.9387    9.3283    2.2169 H       1  LIG1        0.0309
     55 H           9.7060    8.5846    3.3926 H       1  LIG1        0.0310
     56 H           9.7064    6.9687    2.7296 H       1  LIG1        0.0310
     57 H           9.1160    6.8922    5.1216 H       1  LIG1        0.0572
     58 H           6.2195    7.3396    6.5147 H       1  LIG1        0.0335
     59 H           7.4214    6.0785    6.4611 H       1  LIG1        0.0335
     60 H           4.6258    5.7631    7.3988 H       1  LIG1        0.2098
     61 H           3.8863    6.8770    5.4212 H       1  LIG1        0.0290
     62 H           3.5836    5.2974    4.7379 H       1  LIG1        0.0290
     63 H           4.0027    6.9822    2.9676 H       1  LIG1        0.0274
     64 H           5.1414    5.6502    2.9308 H       1  LIG1        0.0274
     65 H           5.2183    8.9283    5.0520 H       1  LIG1        0.0238
     66 H           4.6664    9.2669    3.4280 H       1  LIG1        0.0238
     67 H           6.3117    9.7013    3.9059 H       1  LIG1        0.0238
     68 H           6.8284    6.5372    1.8290 H       1  LIG1        0.0312
     69 H           4.8868    8.7004    1.4354 H       1  LIG1        0.0268
     70 H           5.2772    7.3177    0.4656 H       1  LIG1        0.0268
     71 H           6.6136   10.0441    0.5295 H       1  LIG1        0.0271
     72 H           5.7142    9.3562   -0.7925 H       1  LIG1        0.0271
     73 H           7.7895   10.1090   -2.1223 H       1  LIG1        0.0235
     74 H           9.3806    9.4065   -1.7636 H       1  LIG1        0.0235
     75 H           8.6386   10.5529   -0.6502 H       1  LIG1        0.0235
@<TRIPOS>BOND
     1     1     2    1
     2     2     3    1
     3     3     4    1
     4     2     5    1
     5     5     6    1
     6     6     7    1
     7     7     8    1
     8     8     9    1
     9     8    10    1
    10    11    13    1
    11    13    14    1
    12    14    15    1
    13    15    16    1
    14    16    17    1
    15    17    18    1
    16    18    19    2
    17    19    20    1
    18    20    21    1
    19    21    24    1
    20    24    25    1
    21    25    26    1
    22    19    26    1
    23    26    28    1
    24    16    28    1
    25    28    29    1
    26    29    30    1
    27    30    31    1
    28    11    31    1
    29    15    31    1
    30    26    27    1
    31    31    32    1
    32    11    12    1
    33    11     8    1
    34    21    23    1
    35    21    22    1
    36     1    33    1
    37     1    34    1
    38     1    35    1
    39     2    36    1
    40     3    37    1
    41     3    38    1
    42     4    39    1
    43     5    40    1
    44     5    41    1
    45     6    42    1
    46     6    43    1
    47     7    44    1
    48     7    45    1
    49    10    46    1
    50    10    47    1
    51    10    48    1
    52    13    49    1
    53    13    50    1
    54    14    51    1
    55    14    52    1
    56    15    53    1
    57    16    54    1
    58    17    55    1
    59    17    56    1
    60    18    57    1
    61    20    58    1
    62    20    59    1
    63    23    60    1
    64    24    61    1
    65    24    62    1
    66    25    63    1
    67    25    64    1
    68    27    65    1
    69    27    66    1
    70    27    67    1
    71    28    68    1
    72    29    69    1
    73    29    70    1
    74    30    71    1
    75    30    72    1
    76    32    73    1
    77    32    74    1
    78    32    75    1
