@<TRIPOS>MOLECULE
*****
 72 75 0 0 0
SMALL
GASTEIGER

@<TRIPOS>ATOM
      1 C           6.9858   -0.2483   -0.6884 C.3     1  LIG1       -0.0621
      2 C           7.6414    0.4962   -1.8721 C.3     1  LIG1       -0.0405
      3 H           7.9639   -0.2747   -2.5851 H       1  LIG1        0.0301
      4 C           8.8936    1.2587   -1.3667 C.3     1  LIG1       -0.0502
      5 C           9.9295    0.3623   -0.6715 C.3     1  LIG1       -0.0526
      6 C          11.1729    1.1534   -0.2390 C.3     1  LIG1       -0.0507
      7 C          12.2312    0.2840    0.4700 C.3     1  LIG1       -0.0467
      8 C          12.7813   -0.8183   -0.4370 C.3     1  LIG1       -0.0627
      9 C          13.3872    1.1585    0.9653 C.3     1  LIG1       -0.0627
     10 C           6.5606    1.3613   -2.6006 C.3     1  LIG1       -0.0325
     11 H           5.7152    0.6699   -2.7340 H       1  LIG1        0.0309
     12 C           5.9882    2.5118   -1.7549 C.3     1  LIG1       -0.0489
     13 C           6.4412    3.7804   -2.4453 C.3     1  LIG1       -0.0457
     14 C           6.3696    3.4604   -3.9444 C.3     1  LIG1       -0.0136
     15 H           7.0921    4.1273   -4.4365 H       1  LIG1        0.0351
     16 C           6.8697    1.9806   -4.0233 C.3     1  LIG1       -0.0225
     17 C           6.1169    1.1728   -5.1145 C.3     1  LIG1       -0.0463
     18 C           5.8965    1.9787   -6.3950 C.3     1  LIG1       -0.0452
     19 C           5.0872    3.2780   -6.1593 C.3     1  LIG1       -0.0102
     20 H           5.6839    4.0725   -6.6383 H       1  LIG1        0.0354
     21 C           5.0673    3.7100   -4.6922 C.2     1  LIG1       -0.0620
     22 C           4.0231    4.3980   -4.2129 C.2     1  LIG1       -0.0620
     23 C           2.9067    4.7857   -5.0427 C.2     1  LIG1       -0.0619
     24 C           2.7218    4.3013   -6.2782 C.2     1  LIG1       -0.0607
     25 C           3.6795    3.2860   -6.8956 C.3     1  LIG1       -0.0041
     26 C           2.9287    1.9186   -6.8396 C.3     1  LIG1       -0.0410
     27 C           1.3908    2.0021   -6.7044 C.3     1  LIG1       -0.0258
     28 C           0.7576    3.2053   -7.4114 C.3     1  LIG1        0.0590
     29 H          -0.3060    3.2634   -7.1526 H       1  LIG1        0.0596
     30 C           1.4346    4.5398   -7.0386 C.3     1  LIG1       -0.0048
     31 O           0.8110    3.0087   -8.8249 O.3     1  LIG1       -0.3915
     32 C           3.9989    3.6441   -8.3734 C.3     1  LIG1       -0.0553
     33 C           8.3593    2.0176   -4.4213 C.3     1  LIG1       -0.0588
     34 H           6.8689    0.4085    0.1806 H       1  LIG1        0.0233
     35 H           7.5956   -1.1040   -0.3804 H       1  LIG1        0.0233
     36 H           5.9991   -0.6438   -0.9486 H       1  LIG1        0.0233
     37 H           8.5984    2.0649   -0.6877 H       1  LIG1        0.0268
     38 H           9.4158    1.7293   -2.1961 H       1  LIG1        0.0268
     39 H          10.2093   -0.4368   -1.3657 H       1  LIG1        0.0265
     40 H           9.4947   -0.1046    0.2173 H       1  LIG1        0.0265
     41 H          10.8579    1.9544    0.4427 H       1  LIG1        0.0268
     42 H          11.6237    1.6431   -1.1115 H       1  LIG1        0.0268
     43 H          11.7683   -0.1915    1.3442 H       1  LIG1        0.0295
     44 H          13.2821   -0.3944   -1.3137 H       1  LIG1        0.0232
     45 H          11.9923   -1.4903   -0.7849 H       1  LIG1        0.0232
     46 H          13.5067   -1.4357    0.1036 H       1  LIG1        0.0232
     47 H          13.8044    1.7635    0.1529 H       1  LIG1        0.0232
     48 H          14.1965    0.5454    1.3770 H       1  LIG1        0.0232
     49 H          13.0504    1.8382    1.7549 H       1  LIG1        0.0232
     50 H           6.2970    2.4923   -0.7065 H       1  LIG1        0.0268
     51 H           4.8916    2.4592   -1.7635 H       1  LIG1        0.0268
     52 H           7.4818    3.9872   -2.1648 H       1  LIG1        0.0271
     53 H           5.8576    4.6504   -2.1349 H       1  LIG1        0.0271
     54 H           5.1360    0.8470   -4.7477 H       1  LIG1        0.0271
     55 H           6.6691    0.2537   -5.3474 H       1  LIG1        0.0271
     56 H           5.4296    1.3334   -7.1459 H       1  LIG1        0.0271
     57 H           6.8644    2.2458   -6.8349 H       1  LIG1        0.0271
     58 H           3.9914    4.7674   -3.1921 H       1  LIG1        0.0617
     59 H           2.1794    5.4551   -4.5881 H       1  LIG1        0.0617
     60 H           3.2779    1.3237   -5.9883 H       1  LIG1        0.0275
     61 H           3.1643    1.3296   -7.7355 H       1  LIG1        0.0275
     62 H           1.1404    2.0554   -5.6364 H       1  LIG1        0.0290
     63 H           0.9580    1.0673   -7.0793 H       1  LIG1        0.0290
     64 H           0.7406    5.1175   -6.4149 H       1  LIG1        0.0335
     65 H           1.6316    5.1496   -7.9277 H       1  LIG1        0.0335
     66 H           0.3724    2.1632   -9.0203 H       1  LIG1        0.2098
     67 H           4.3987    4.6622   -8.4544 H       1  LIG1        0.0238
     68 H           3.1303    3.5881   -9.0308 H       1  LIG1        0.0238
     69 H           4.7471    2.9618   -8.7927 H       1  LIG1        0.0238
     70 H           8.9205    2.7347   -3.8163 H       1  LIG1        0.0235
     71 H           8.4935    2.3604   -5.4526 H       1  LIG1        0.0235
     72 H           8.8267    1.0310   -4.3548 H       1  LIG1        0.0235
@<TRIPOS>BOND
     1     2     4    1
     2     4     5    1
     3     5     6    1
     4     6     7    1
     5     7     8    1
     6     7     9    1
     7    10    12    1
     8    12    13    1
     9    13    14    1
    10    14    16    1
    11    10    16    1
    12    16    17    1
    13    17    18    1
    14    18    19    1
    15    19    21    1
    16    14    21    1
    17    21    22    2
    18    22    23    1
    19    23    24    2
    20    24    25    1
    21    19    25    1
    22    25    26    1
    23    26    27    1
    24    27    28    1
    25    28    30    1
    26    24    30    1
    27     2    10    1
    28    10    11    1
    29    14    15    1
    30    16    33    1
    31    19    20    1
    32    25    32    1
    33     2     3    1
    34     2     1    1
    35    28    31    1
    36    28    29    1
    37     1    34    1
    38     1    35    1
    39     1    36    1
    40     4    37    1
    41     4    38    1
    42     5    39    1
    43     5    40    1
    44     6    41    1
    45     6    42    1
    46     7    43    1
    47     8    44    1
    48     8    45    1
    49     8    46    1
    50     9    47    1
    51     9    48    1
    52     9    49    1
    53    12    50    1
    54    12    51    1
    55    13    52    1
    56    13    53    1
    57    17    54    1
    58    17    55    1
    59    18    56    1
    60    18    57    1
    61    22    58    1
    62    23    59    1
    63    26    60    1
    64    26    61    1
    65    27    62    1
    66    27    63    1
    67    30    64    1
    68    30    65    1
    69    31    66    1
    70    32    67    1
    71    32    68    1
    72    32    69    1
    73    33    70    1
    74    33    71    1
    75    33    72    1
