WARNING: damped steplength 0.00242792 to 0.00187854
@<TRIPOS>MOLECULE
*****
 151 151 0 0 0
SMALL
GASTEIGER

@<TRIPOS>ATOM
      1 C          19.0311   -8.2526   12.0224 C.3     1  LIG1       -0.0653
      2 C          18.7285   -8.8227   10.6295 C.3     1  LIG1       -0.0559
      3 C          18.7185   -7.7057    9.5861 C.3     1  LIG1       -0.0533
      4 C          18.4646   -8.0604    8.1100 C.3     1  LIG1       -0.0531
      5 C          19.3449   -9.0517    7.3238 C.3     1  LIG1       -0.0531
      6 C          20.8117   -8.6932    7.0147 C.3     1  LIG1       -0.0531
      7 C          21.0304   -7.4667    6.1132 C.3     1  LIG1       -0.0531
      8 C          20.2748   -7.5423    4.7842 C.3     1  LIG1       -0.0531
      9 C          20.4627   -6.2861    3.9208 C.3     1  LIG1       -0.0531
     10 C          19.8510   -6.3626    2.5066 C.3     1  LIG1       -0.0531
     11 C          20.6064   -7.4103    1.6621 C.3     1  LIG1       -0.0531
     12 C          22.1306   -7.3057    1.3522 C.3     1  LIG1       -0.0530
     13 C          22.8222   -6.2668    0.3631 C.3     1  LIG1       -0.0526
     14 C          22.5217   -5.9664   -1.1541 C.3     1  LIG1       -0.0430
     15 C          22.8502   -6.9803   -2.2296 C.3     1  LIG1        0.0449
     16 C          21.9287   -8.0443   -1.8703 C.2     1  LIG1        0.3072
     17 O          20.9119   -8.0865   -2.4023 O.2     1  LIG1       -0.2509
     18 O          22.3808   -8.8534   -0.8371 O.3     1  LIG1       -0.4608
     19 C          23.6019   -9.6472   -0.9467 C.3     1  LIG1        0.1315
     20 C          23.4558  -11.1662   -1.3351 C.3     1  LIG1        0.1605
     21 H          22.7600  -11.5724   -0.6190 H       1  LIG1        0.0792
     22 C          23.1838  -11.6018   -2.7324 C.3     1  LIG1        0.0993
     23 O          22.7799  -13.0325   -2.8442 O.3     1  LIG1       -0.2828
     24 P          21.6524  -13.9305   -1.9702 P.3     1  LIG1        0.4752
     25 O          22.0696  -15.3497   -1.7888 O.2     1  LIG1       -0.2273
     26 O          21.6442  -13.2107   -0.5660 O.3     1  LIG1       -0.3025
     27 O          20.0452  -13.7066   -2.3813 O.3     1  LIG1       -0.2813
     28 C          19.1812  -12.5888   -1.9218 C.3     1  LIG1        0.0989
     29 C          19.0288  -11.2972   -3.0119 C.3     1  LIG1       -0.0063
     30 N          20.3784  -10.7151   -3.3918 N.4     1  LIG1        0.2385
     31 C          20.9884  -11.8661   -4.1217 C.3     1  LIG1       -0.0417
     32 C          20.8729   -9.5911   -4.5029 C.3     1  LIG1       -0.0417
     33 C          20.7305  -10.4142   -1.8815 C.3     1  LIG1       -0.0417
     34 O          24.6646  -11.8344   -1.3721 O.3     1  LIG1       -0.4555
     35 C          25.0760  -12.1409   -0.1642 C.2     1  LIG1        0.3075
     36 O          24.3513  -12.2922    0.8023 O.2     1  LIG1       -0.2508
     37 C          26.5441  -11.9700   -0.2284 C.3     1  LIG1        0.0450
     38 C          27.1985  -11.5958   -1.5745 C.3     1  LIG1       -0.0430
     39 C          28.7533  -11.4796   -1.4406 C.3     1  LIG1       -0.0526
     40 C          29.8520  -12.6665   -1.0888 C.3     1  LIG1       -0.0530
     41 C          30.1110  -13.3736    0.3353 C.3     1  LIG1       -0.0531
     42 C          31.2196  -14.5258    0.6528 C.3     1  LIG1       -0.0531
     43 C          32.8275  -14.5554    0.7046 C.3     1  LIG1       -0.0531
     44 C          33.8393  -13.8121    1.6080 C.3     1  LIG1       -0.0531
     45 C          33.9881  -12.3072    1.4097 C.3     1  LIG1       -0.0531
     46 C          35.1000  -11.5772    2.2191 C.3     1  LIG1       -0.0531
     47 C          34.9953  -11.6123    3.7775 C.3     1  LIG1       -0.0531
     48 C          35.0707  -13.0427    4.3846 C.3     1  LIG1       -0.0529
     49 C          34.8487  -13.3149    5.8801 C.3     1  LIG1       -0.0491
     50 C          34.9622  -14.8159    6.3810 C.3     1  LIG1       -0.0080
     51 C          33.9443  -16.0436    6.0375 C.3     1  LIG1        0.1452
     52 C          34.4925  -17.2455    6.9361 C.3     1  LIG1       -0.0108
     53 C          33.8644  -18.6414    6.9581 C.3     1  LIG1       -0.0613
     54 O          32.6179  -15.7899    6.5336 O.3     1  LIG1       -0.3550
     55 C          31.7116  -16.5795    5.7143 C.3     1  LIG1        0.0702
     56 C          32.4683  -17.0053    4.4337 C.3     1  LIG1        0.0675
     57 C          31.6341  -16.5215    3.2505 C.3     1  LIG1       -0.0424
     58 C          32.5925  -18.5232    4.1527 C.3     1  LIG1       -0.0424
     59 N          33.7421  -16.2579    4.5908 N.4     1  LIG1       -0.1518
     60 O          34.8458  -16.9718    3.9992 O.3     1  LIG1       -0.3091
     61 H          19.2773   -9.0569   12.7227 H       1  LIG1        0.0230
     62 H          18.1641   -7.7172   12.4288 H       1  LIG1        0.0230
     63 H          19.8709   -7.5487   12.0057 H       1  LIG1        0.0230
     64 H          17.7380   -9.2921   10.6680 H       1  LIG1        0.0263
     65 H          19.4588   -9.5964   10.3768 H       1  LIG1        0.0263
     66 H          19.6190   -7.0889    9.6730 H       1  LIG1        0.0265
     67 H          17.8755   -7.0666    9.8865 H       1  LIG1        0.0265
     68 H          18.4370   -7.1122    7.5583 H       1  LIG1        0.0265
     69 H          17.4417   -8.4554    8.0603 H       1  LIG1        0.0265
     70 H          18.8392   -9.2077    6.3597 H       1  LIG1        0.0265
     71 H          19.3157  -10.0314    7.8105 H       1  LIG1        0.0265
     72 H          21.2816   -9.5661    6.5321 H       1  LIG1        0.0265
     73 H          21.3556   -8.5302    7.9493 H       1  LIG1        0.0265
     74 H          22.1080   -7.3295    5.9315 H       1  LIG1        0.0265
     75 H          20.6841   -6.5854    6.6555 H       1  LIG1        0.0265
     76 H          19.2094   -7.5855    5.0131 H       1  LIG1        0.0265
     77 H          20.5468   -8.4712    4.2718 H       1  LIG1        0.0265
     78 H          21.5256   -6.0433    3.8228 H       1  LIG1        0.0265
     79 H          19.9969   -5.4598    4.4679 H       1  LIG1        0.0265
     80 H          19.7693   -5.3409    2.1058 H       1  LIG1        0.0265
     81 H          18.7978   -6.6927    2.5234 H       1  LIG1        0.0265
     82 H          20.0125   -7.7582    0.8093 H       1  LIG1        0.0265
     83 H          20.5431   -8.3019    2.3019 H       1  LIG1        0.0265
     84 H          22.4127   -8.3298    1.1087 H       1  LIG1        0.0265
     85 H          22.6817   -7.2498    2.3040 H       1  LIG1        0.0265
     86 H          23.9031   -6.4816    0.3898 H       1  LIG1        0.0265
     87 H          22.7071   -5.2980    0.8540 H       1  LIG1        0.0265
     88 H          23.1351   -5.1200   -1.4739 H       1  LIG1        0.0270
     89 H          21.4706   -5.6607   -1.2511 H       1  LIG1        0.0270
     90 H          23.8497   -7.3698   -2.3555 H       1  LIG1        0.0377
     91 H          22.4867   -6.7012   -3.2348 H       1  LIG1        0.0377
     92 H          24.0591   -9.5874    0.0479 H       1  LIG1        0.0736
     93 H          24.2252   -9.1896   -1.6920 H       1  LIG1        0.0736
     94 H          23.9352  -11.3144   -3.4980 H       1  LIG1        0.0604
     95 H          22.5287  -10.8854   -3.1352 H       1  LIG1        0.0604
     96 H          22.3210  -13.6437   -0.0160 H       1  LIG1        0.2220
     97 H          19.4634  -12.2991   -0.8934 H       1  LIG1        0.0619
     98 H          18.1581  -12.9513   -1.7441 H       1  LIG1        0.0619
     99 H          18.4746  -10.4659   -2.5671 H       1  LIG1        0.0838
    100 H          18.6082  -11.6683   -3.9332 H       1  LIG1        0.0838
    101 H          20.3765  -12.4559   -4.7826 H       1  LIG1        0.0778
    102 H          21.1020  -12.3751   -3.2415 H       1  LIG1        0.0778
    103 H          21.9501  -11.6884   -4.6255 H       1  LIG1        0.0778
    104 H          21.9896   -9.4614   -4.4384 H       1  LIG1        0.0778
    105 H          20.4131   -8.6104   -4.4465 H       1  LIG1        0.0778
    106 H          20.7119  -10.0122   -5.5053 H       1  LIG1        0.0778
    107 H          20.9017  -11.2323   -1.1844 H       1  LIG1        0.0778
    108 H          20.1127   -9.6899   -1.3287 H       1  LIG1        0.0778
    109 H          21.6886  -10.0678   -2.0173 H       1  LIG1        0.0778
    110 H          26.9244  -12.9192    0.1087 H       1  LIG1        0.0377
    111 H          26.6785  -11.1162    0.4368 H       1  LIG1        0.0377
    112 H          26.7998  -10.5958   -1.8786 H       1  LIG1        0.0270
    113 H          26.8929  -12.2088   -2.4414 H       1  LIG1        0.0270
    114 H          28.9283  -10.6096   -0.7955 H       1  LIG1        0.0265
    115 H          29.0318  -11.1238   -2.4503 H       1  LIG1        0.0265
    116 H          30.8079  -12.1757   -1.3083 H       1  LIG1        0.0265
    117 H          29.7236  -13.4424   -1.8525 H       1  LIG1        0.0265
    118 H          29.1639  -13.8952    0.5608 H       1  LIG1        0.0265
    119 H          30.2454  -12.6246    1.1191 H       1  LIG1        0.0265
    120 H          30.9852  -15.3786   -0.0031 H       1  LIG1        0.0265
    121 H          30.8630  -14.8921    1.6220 H       1  LIG1        0.0265
    122 H          33.2077  -14.4524   -0.3029 H       1  LIG1        0.0265
    123 H          33.0791  -15.6023    0.9739 H       1  LIG1        0.0265
    124 H          34.8476  -14.2528    1.4596 H       1  LIG1        0.0265
    125 H          33.5668  -14.0964    2.6086 H       1  LIG1        0.0265
    126 H          33.0310  -11.8298    1.6220 H       1  LIG1        0.0265
    127 H          34.2043  -12.1410    0.3447 H       1  LIG1        0.0265
    128 H          35.0750  -10.5193    1.8989 H       1  LIG1        0.0265
    129 H          36.0962  -11.9260    1.9117 H       1  LIG1        0.0265
    130 H          34.0619  -11.1095    4.0596 H       1  LIG1        0.0265
    131 H          35.8134  -10.9922    4.1710 H       1  LIG1        0.0265
    132 H          35.9674  -13.5369    3.9948 H       1  LIG1        0.0265
    133 H          34.1954  -13.5356    4.0328 H       1  LIG1        0.0265
    134 H          33.8508  -12.9580    6.1500 H       1  LIG1        0.0267
    135 H          35.5711  -12.7054    6.4408 H       1  LIG1        0.0267
    136 H          34.9233  -14.7118    7.4795 H       1  LIG1        0.0307
    137 H          35.9871  -15.1551    6.1671 H       1  LIG1        0.0307
    138 H          34.3928  -16.9083    7.9789 H       1  LIG1        0.0304
    139 H          35.5669  -17.3760    6.7609 H       1  LIG1        0.0304
    140 H          32.8864  -18.7108    6.5040 H       1  LIG1        0.0231
    141 H          33.7011  -18.9955    7.9811 H       1  LIG1        0.0231
    142 H          34.5294  -19.3683    6.4759 H       1  LIG1        0.0231
    143 H          30.8426  -15.9406    5.5130 H       1  LIG1        0.0580
    144 H          31.3357  -17.4294    6.2906 H       1  LIG1        0.0580
    145 H          30.6975  -17.0877    3.1351 H       1  LIG1        0.0249
    146 H          32.1742  -16.6744    2.3179 H       1  LIG1        0.0249
    147 H          31.3680  -15.4712    3.3794 H       1  LIG1        0.0249
    148 H          31.7138  -19.0708    4.5122 H       1  LIG1        0.0249
    149 H          33.4863  -18.9730    4.5787 H       1  LIG1        0.0249
    150 H          32.6918  -18.7371    3.0796 H       1  LIG1        0.0249
    151 H          35.1253  -16.3499    3.3006 H       1  LIG1        0.2367
@<TRIPOS>BOND
     1     1     2    1
     2     2     3    1
     3     3     4    1
     4     4     5    1
     5     5     6    1
     6     6     7    1
     7     7     8    1
     8     8     9    1
     9     9    10    1
    10    10    11    1
    11    11    12    1
    12    12    13    1
    13    13    14    1
    14    14    15    1
    15    15    16    1
    16    16    17    2
    17    16    18    1
    18    18    19    1
    19    19    20    1
    20    20    21    1
    21    20    22    1
    22    22    23    1
    23    23    24    1
    24    24    25    2
    25    24    26    1
    26    24    27    1
    27    27    28    1
    28    28    29    1
    29    29    30    1
    30    30    31    1
    31    30    32    1
    32    30    33    1
    33    20    34    1
    34    34    35    1
    35    35    36    2
    36    35    37    1
    37    37    38    1
    38    38    39    1
    39    39    40    1
    40    40    41    1
    41    41    42    1
    42    42    43    1
    43    43    44    1
    44    44    45    1
    45    45    46    1
    46    46    47    1
    47    47    48    1
    48    48    49    1
    49    49    50    1
    50    50    51    1
    51    51    52    1
    52    52    53    1
    53    51    54    1
    54    54    55    1
    55    55    56    1
    56    56    57    1
    57    56    58    1
    58    56    59    1
    59    51    59    1
    60    59    60    1
    61     1    61    1
    62     1    62    1
    63     1    63    1
    64     2    64    1
    65     2    65    1
    66     3    66    1
    67     3    67    1
    68     4    68    1
    69     4    69    1
    70     5    70    1
    71     5    71    1
    72     6    72    1
    73     6    73    1
    74     7    74    1
    75     7    75    1
    76     8    76    1
    77     8    77    1
    78     9    78    1
    79     9    79    1
    80    10    80    1
    81    10    81    1
    82    11    82    1
    83    11    83    1
    84    12    84    1
    85    12    85    1
    86    13    86    1
    87    13    87    1
    88    14    88    1
    89    14    89    1
    90    15    90    1
    91    15    91    1
    92    19    92    1
    93    19    93    1
    94    22    94    1
    95    22    95    1
    96    26    96    1
    97    28    97    1
    98    28    98    1
    99    29    99    1
   100    29   100    1
   101    31   101    1
   102    31   102    1
   103    31   103    1
   104    32   104    1
   105    32   105    1
   106    32   106    1
   107    33   107    1
   108    33   108    1
   109    33   109    1
   110    37   110    1
   111    37   111    1
   112    38   112    1
   113    38   113    1
   114    39   114    1
   115    39   115    1
   116    40   116    1
   117    40   117    1
   118    41   118    1
   119    41   119    1
   120    42   120    1
   121    42   121    1
   122    43   122    1
   123    43   123    1
   124    44   124    1
   125    44   125    1
   126    45   126    1
   127    45   127    1
   128    46   128    1
   129    46   129    1
   130    47   130    1
   131    47   131    1
   132    48   132    1
   133    48   133    1
   134    49   134    1
   135    49   135    1
   136    50   136    1
   137    50   137    1
   138    52   138    1
   139    52   139    1
   140    53   140    1
   141    53   141    1
   142    53   142    1
   143    55   143    1
   144    55   144    1
   145    57   145    1
   146    57   146    1
   147    57   147    1
   148    58   148    1
   149    58   149    1
   150    58   150    1
   151    60   151    1
