WARNING: damped steplength 0.00507859 to 0.00423202
@<TRIPOS>MOLECULE
*****
 105 104 0 0 0
SMALL
GASTEIGER

@<TRIPOS>ATOM
      1 C          29.2185  -15.2254    9.3941 C.3     0  UNK0       -0.0653
      2 C          28.9386  -15.7388   10.8005 C.3     0  UNK0       -0.0559
      3 C          28.0918  -14.7413   11.5800 C.3     0  UNK0       -0.0533
      4 C          28.8616  -13.4327   11.6891 C.3     0  UNK0       -0.0531
      5 C          28.1966  -12.4454   12.6218 C.3     0  UNK0       -0.0531
      6 C          26.8342  -11.8216   12.2685 C.3     0  UNK0       -0.0531
      7 C          26.8529  -10.8328   11.0945 C.3     0  UNK0       -0.0531
      8 C          25.5279  -10.1077   10.7612 C.3     0  UNK0       -0.0531
      9 C          24.9317   -9.1742   11.8382 C.3     0  UNK0       -0.0531
     10 C          23.5956   -8.5735   11.3465 C.3     0  UNK0       -0.0531
     11 C          22.9092   -7.5317   12.2978 C.3     0  UNK0       -0.0531
     12 C          22.3459   -8.1362   13.6068 C.3     0  UNK0       -0.0530
     13 C          21.3564   -7.3944   14.5790 C.3     0  UNK0       -0.0526
     14 C          21.4287   -6.4061   15.7869 C.3     0  UNK0       -0.0448
     15 C          21.5344   -4.8675   15.6316 C.3     0  UNK0        0.0240
     16 C          20.5859   -4.1510   14.6650 C.2     0  UNK0        0.2134
     17 O          19.2788   -4.2240   14.8715 O.2     0  UNK0       -0.2758
     18 N          21.1257   -3.4215   13.6546 N.am    1  UNK1       -0.3075
     19 C          20.4341   -2.6815   12.4870 C.3     1  UNK1        0.0756
     20 C          19.7091   -1.3835   12.9701 C.3     1  UNK1        0.0653
     21 O          18.4828   -1.6567   13.6423 O.3     1  UNK1       -0.3931
     22 C          21.4854   -2.3473   11.2705 C.3     1  UNK1        0.0938
     23 C          21.0454   -1.4245   10.0352 C.2     1  UNK1       -0.0580
     24 C          20.9083   -1.5032    8.6568 C.2     1  UNK1       -0.0855
     25 C          20.2783   -0.2596    7.6929 C.3     1  UNK1       -0.0347
     26 C          20.5734    0.2161    6.0748 C.3     1  UNK1       -0.0496
     27 C          19.8631    1.4807    5.2715 C.3     1  UNK1       -0.0528
     28 C          20.4192    1.8155    3.8105 C.3     1  UNK1       -0.0530
     29 C          21.9513    2.0141    3.8270 C.3     1  UNK1       -0.0531
     30 C          22.8916    2.3816    2.6687 C.3     1  UNK1       -0.0531
     31 C          22.5559    3.5694    1.8524 C.3     1  UNK1       -0.0531
     32 C          21.2592    3.2605    1.1187 C.3     1  UNK1       -0.0531
     33 C          21.1364    2.0561    0.1230 C.3     1  UNK1       -0.0531
     34 C          21.3975    0.4761    0.3693 C.3     1  UNK1       -0.0531
     35 C          22.8252   -0.3369    0.5500 C.3     1  UNK1       -0.0533
     36 C          23.7395   -0.2348    1.8384 C.3     1  UNK1       -0.0559
     37 C          24.9412   -1.0841    2.2659 C.3     1  UNK1       -0.0653
     38 O          22.6268   -1.6631   11.8548 O.3     1  UNK1       -0.3859
     39 H          29.0034  -15.9959    8.6532 H       0  UNK0        0.0230
     40 H          30.2700  -14.9321    9.3065 H       0  UNK0        0.0230
     41 H          28.6087  -14.3514    9.1374 H       0  UNK0        0.0230
     42 H          29.8903  -15.8867   11.3297 H       0  UNK0        0.0263
     43 H          28.4442  -16.7149   10.7702 H       0  UNK0        0.0263
     44 H          27.8884  -15.1440   12.5804 H       0  UNK0        0.0265
     45 H          27.1243  -14.5785   11.0917 H       0  UNK0        0.0265
     46 H          29.0520  -12.9705   10.7154 H       0  UNK0        0.0265
     47 H          29.8546  -13.6732   12.1009 H       0  UNK0        0.0265
     48 H          28.9170  -11.6355   12.7609 H       0  UNK0        0.0265
     49 H          28.0817  -12.9558   13.5850 H       0  UNK0        0.0265
     50 H          26.5919  -11.2335   13.1585 H       0  UNK0        0.0265
     51 H          26.0489  -12.5829   12.1748 H       0  UNK0        0.0265
     52 H          27.1890  -11.3317   10.1753 H       0  UNK0        0.0265
     53 H          27.6026  -10.0704   11.3281 H       0  UNK0        0.0265
     54 H          24.7723  -10.8320   10.4325 H       0  UNK0        0.0265
     55 H          25.7393   -9.4775    9.8858 H       0  UNK0        0.0265
     56 H          25.6379   -8.3577   12.0285 H       0  UNK0        0.0265
     57 H          24.7760   -9.7129   12.7764 H       0  UNK0        0.0265
     58 H          22.8984   -9.3920   11.1156 H       0  UNK0        0.0265
     59 H          23.7898   -8.0815   10.3809 H       0  UNK0        0.0265
     60 H          22.0796   -7.1070   11.7155 H       0  UNK0        0.0265
     61 H          23.6164   -6.7260   12.5061 H       0  UNK0        0.0265
     62 H          23.1241   -8.6860   14.1456 H       0  UNK0        0.0265
     63 H          21.6849   -8.9296   13.2109 H       0  UNK0        0.0265
     64 H          20.9826   -8.2799   15.1241 H       0  UNK0        0.0265
     65 H          20.5390   -7.0272   13.9624 H       0  UNK0        0.0265
     66 H          22.1024   -6.7578   16.5826 H       0  UNK0        0.0270
     67 H          20.4329   -6.5375   16.2547 H       0  UNK0        0.0270
     68 H          22.5676   -4.5619   15.4668 H       0  UNK0        0.0358
     69 H          21.2814   -4.4515   16.6347 H       0  UNK0        0.0358
     70 H          22.1326   -3.5804   13.5215 H       1  UNK1        0.1492
     71 H          19.6737   -3.3779   12.1206 H       1  UNK1        0.0550
     72 H          19.4330   -0.7613   12.1150 H       1  UNK1        0.0576
     73 H          20.3381   -0.7892   13.6408 H       1  UNK1        0.0576
     74 H          17.9897   -0.8221   13.7334 H       1  UNK1        0.2095
     75 H          21.8944   -3.3144   10.9450 H       1  UNK1        0.0657
     76 H          20.8370   -0.4374   10.4342 H       1  UNK1        0.0595
     77 H          21.0965   -2.4692    8.1756 H       1  UNK1        0.0570
     78 H          20.4778    0.6363    8.2896 H       1  UNK1        0.0307
     79 H          19.2042   -0.4733    7.7187 H       1  UNK1        0.0307
     80 H          20.3409   -0.6382    5.4307 H       1  UNK1        0.0268
     81 H          21.6444    0.4141    6.0218 H       1  UNK1        0.0268
     82 H          19.9539    2.4375    5.8095 H       1  UNK1        0.0265
     83 H          18.7848    1.3195    5.1120 H       1  UNK1        0.0265
     84 H          19.9016    2.7465    3.5251 H       1  UNK1        0.0265
     85 H          20.0915    1.0632    3.0784 H       1  UNK1        0.0265
     86 H          22.3449    1.0836    4.2291 H       1  UNK1        0.0265
     87 H          22.1280    2.8183    4.5378 H       1  UNK1        0.0265
     88 H          22.9035    1.6738    1.8749 H       1  UNK1        0.0265
     89 H          23.9206    2.4447    3.0579 H       1  UNK1        0.0265
     90 H          23.3643    3.7823    1.1375 H       1  UNK1        0.0265
     91 H          22.4919    4.4135    2.5430 H       1  UNK1        0.0265
     92 H          20.9661    4.1958    0.6291 H       1  UNK1        0.0265
     93 H          20.4639    3.1335    1.8358 H       1  UNK1        0.0265
     94 H          21.5966    2.3615   -0.8216 H       1  UNK1        0.0265
     95 H          20.0494    2.0984   -0.1041 H       1  UNK1        0.0265
     96 H          21.0258    0.0649   -0.5950 H       1  UNK1        0.0265
     97 H          20.6458    0.0850    1.0712 H       1  UNK1        0.0265
     98 H          23.4299   -0.0313   -0.3076 H       1  UNK1        0.0265
     99 H          22.6051   -1.4055    0.3957 H       1  UNK1        0.0265
    100 H          23.1067   -0.1610    2.7282 H       1  UNK1        0.0263
    101 H          24.3185    0.6760    1.6634 H       1  UNK1        0.0263
    102 H          24.8243   -2.1597    2.1664 H       1  UNK1        0.0230
    103 H          25.1657   -0.8658    3.3300 H       1  UNK1        0.0230
    104 H          25.8474   -0.7474    1.7466 H       1  UNK1        0.0230
    105 H          22.4121   -1.3790   12.7611 H       1  UNK1        0.2103
@<TRIPOS>BOND
     1     1     2    1
     2     2     3    1
     3     3     4    1
     4     4     5    1
     5     5     6    1
     6     6     7    1
     7     7     8    1
     8     8     9    1
     9     9    10    1
    10    10    11    1
    11    11    12    1
    12    12    13    1
    13    13    14    1
    14    14    15    1
    15    15    16    1
    16    16    17    2
    17    16    18   am
    18    18    19    1
    19    19    20    1
    20    20    21    1
    21    19    22    1
    22    22    23    1
    23    23    24    2
    24    24    25    1
    25    25    26    1
    26    26    27    1
    27    27    28    1
    28    28    29    1
    29    29    30    1
    30    30    31    1
    31    31    32    1
    32    32    33    1
    33    33    34    1
    34    34    35    1
    35    35    36    1
    36    36    37    1
    37    22    38    1
    38     1    39    1
    39     1    40    1
    40     1    41    1
    41     2    42    1
    42     2    43    1
    43     3    44    1
    44     3    45    1
    45     4    46    1
    46     4    47    1
    47     5    48    1
    48     5    49    1
    49     6    50    1
    50     6    51    1
    51     7    52    1
    52     7    53    1
    53     8    54    1
    54     8    55    1
    55     9    56    1
    56     9    57    1
    57    10    58    1
    58    10    59    1
    59    11    60    1
    60    11    61    1
    61    12    62    1
    62    12    63    1
    63    13    64    1
    64    13    65    1
    65    14    66    1
    66    14    67    1
    67    15    68    1
    68    15    69    1
    69    18    70    1
    70    19    71    1
    71    20    72    1
    72    20    73    1
    73    21    74    1
    74    22    75    1
    75    23    76    1
    76    24    77    1
    77    25    78    1
    78    25    79    1
    79    26    80    1
    80    26    81    1
    81    27    82    1
    82    27    83    1
    83    28    84    1
    84    28    85    1
    85    29    86    1
    86    29    87    1
    87    30    88    1
    88    30    89    1
    89    31    90    1
    90    31    91    1
    91    32    92    1
    92    32    93    1
    93    33    94    1
    94    33    95    1
    95    34    96    1
    96    34    97    1
    97    35    98    1
    98    35    99    1
    99    36   100    1
   100    36   101    1
   101    37   102    1
   102    37   103    1
   103    37   104    1
   104    38   105    1
