@<TRIPOS>MOLECULE
*****
 21 21 0 0 0
SMALL
GASTEIGER

@<TRIPOS>ATOM
      1 C           1.6325   -0.0609   -2.3454 C.3     1  LIG1        0.0336
      2 C           2.9751   -0.3643   -1.7519 C.2     1  LIG1        0.3092
      3 O           3.2406   -1.4309   -1.2119 O.2     1  LIG1       -0.2507
      4 O           3.8397    0.7117   -1.9517 O.3     1  LIG1       -0.4252
      5 C           5.1888    0.6013   -1.5534 C.ar    1  LIG1        0.1456
      6 C           5.5193    0.0298   -0.3181 C.ar    1  LIG1       -0.0184
      7 C           6.8538   -0.0758    0.0741 C.ar    1  LIG1       -0.0582
      8 C           7.8631    0.4266   -0.7423 C.ar    1  LIG1       -0.0608
      9 C           7.5359    1.0515   -1.9466 C.ar    1  LIG1       -0.0442
     10 C           6.1972    1.1436   -2.3638 C.ar    1  LIG1        0.1010
     11 C           5.9573    1.8549   -3.6397 C.2     1  LIG1        0.3404
     12 O           6.6729    2.7213   -4.1024 O.2     1  LIG1       -0.2450
     13 O           4.8992    1.3925   -4.3275 O.3     1  LIG1       -0.4770
     14 H           0.8536   -0.3871   -1.6500 H       1  LIG1        0.0342
     15 H           1.5346   -0.5928   -3.2948 H       1  LIG1        0.0342
     16 H           1.5075    1.0118   -2.5123 H       1  LIG1        0.0342
     17 H           4.7492   -0.3493    0.3485 H       1  LIG1        0.0654
     18 H           7.1015   -0.5523    1.0196 H       1  LIG1        0.0619
     19 H           8.9032    0.3407   -0.4374 H       1  LIG1        0.0618
     20 H           8.3319    1.4633   -2.5651 H       1  LIG1        0.0627
     21 H           4.9260    1.9162   -5.1568 H       1  LIG1        0.2954
@<TRIPOS>BOND
     1     1     2    1
     2     2     3    2
     3     2     4    1
     4     4     5    1
     5     5     6   ar
     6     6     7   ar
     7     7     8   ar
     8     8     9   ar
     9     9    10   ar
    10     5    10   ar
    11    10    11    1
    12    11    12    2
    13    11    13    1
    14     1    14    1
    15     1    15    1
    16     1    16    1
    17     6    17    1
    18     7    18    1
    19     8    19    1
    20     9    20    1
    21    13    21    1
