@<TRIPOS>MOLECULE
*****
 55 56 0 0 0
SMALL
GASTEIGER

@<TRIPOS>ATOM
      1 C          17.1107    0.8975   -9.9643 C.3     1  LIG1       -0.0653
      2 C          17.1586    0.6636   -8.4630 C.3     1  LIG1       -0.0559
      3 C          16.1238    1.5194   -7.7126 C.3     1  LIG1       -0.0533
      4 C          14.6100    1.2604   -7.9989 C.3     1  LIG1       -0.0531
      5 C          14.0221   -0.0489   -7.4130 C.3     1  LIG1       -0.0531
      6 C          12.4853   -0.3044   -7.5277 C.3     1  LIG1       -0.0531
      7 C          12.1229   -1.7704   -7.0643 C.3     1  LIG1       -0.0531
      8 C          12.0818   -2.0597   -5.5383 C.3     1  LIG1       -0.0531
      9 C          12.2963   -3.5268   -5.0595 C.3     1  LIG1       -0.0529
     10 C          11.2241   -4.5672   -5.4033 C.3     1  LIG1       -0.0473
     11 C          11.6108   -5.9480   -4.8201 C.3     1  LIG1        0.0070
     12 C          10.5515   -7.0168   -5.0835 C.3     1  LIG1        0.1526
     13 N           9.2525   -6.6641   -4.4880 N.ar    1  LIG1       -0.1809
     14 C           9.0610   -6.0954   -3.3115 C.ar    1  LIG1        0.2486
     15 N           7.7633   -5.8187   -3.1525 N.ar    1  LIG1       -0.2921
     16 C           7.1821   -5.2494   -1.9469 C.3     1  LIG1        0.0173
     17 C           7.0805   -6.1900   -4.3039 C.ar    1  LIG1        0.1180
     18 C           5.7493   -6.0487   -4.6878 C.ar    1  LIG1       -0.0316
     19 C           5.3997   -6.6130   -5.9212 C.ar    1  LIG1       -0.0594
     20 C           6.3336   -7.3087   -6.7155 C.ar    1  LIG1       -0.0554
     21 C           7.6741   -7.4296   -6.3252 C.ar    1  LIG1        0.0119
     22 C           8.0192   -6.8328   -5.1310 C.ar    1  LIG1        0.2326
     23 H          18.0751    0.6737  -10.4340 H       1  LIG1        0.0230
     24 H          16.8642    1.9388  -10.1964 H       1  LIG1        0.0230
     25 H          16.3555    0.2475  -10.4118 H       1  LIG1        0.0230
     26 H          18.1691    0.9305   -8.1156 H       1  LIG1        0.0263
     27 H          17.0304   -0.4009   -8.2418 H       1  LIG1        0.0263
     28 H          16.3343    2.5652   -7.9839 H       1  LIG1        0.0265
     29 H          16.3284    1.4527   -6.6371 H       1  LIG1        0.0265
     30 H          14.4488    1.2870   -9.0823 H       1  LIG1        0.0265
     31 H          14.0625    2.1138   -7.5805 H       1  LIG1        0.0265
     32 H          14.2807   -0.1036   -6.3526 H       1  LIG1        0.0265
     33 H          14.5181   -0.8781   -7.9260 H       1  LIG1        0.0265
     34 H          12.1893   -0.2107   -8.5845 H       1  LIG1        0.0265
     35 H          11.8967    0.4557   -6.9926 H       1  LIG1        0.0265
     36 H          12.8639   -2.4255   -7.5306 H       1  LIG1        0.0265
     37 H          11.1515   -2.0502   -7.4957 H       1  LIG1        0.0265
     38 H          11.1285   -1.7079   -5.1245 H       1  LIG1        0.0265
     39 H          12.8661   -1.4714   -5.0505 H       1  LIG1        0.0265
     40 H          12.3461   -3.5039   -3.9599 H       1  LIG1        0.0265
     41 H          13.2747   -3.8937   -5.3911 H       1  LIG1        0.0265
     42 H          11.0921   -4.6513   -6.4864 H       1  LIG1        0.0267
     43 H          10.2657   -4.2469   -4.9784 H       1  LIG1        0.0267
     44 H          11.7848   -5.8688   -3.7406 H       1  LIG1        0.0326
     45 H          12.5583   -6.2843   -5.2597 H       1  LIG1        0.0326
     46 H          10.8535   -7.9827   -4.6629 H       1  LIG1        0.1031
     47 H          10.4408   -7.1408   -6.1624 H       1  LIG1        0.1031
     48 H           9.8406   -5.8529   -2.5775 H       1  LIG1        0.1601
     49 H           7.8925   -5.3423   -1.1206 H       1  LIG1        0.0457
     50 H           6.2716   -5.7990   -1.6869 H       1  LIG1        0.0457
     51 H           6.9518   -4.1958   -2.1163 H       1  LIG1        0.0457
     52 H           5.0313   -5.5227   -4.0697 H       1  LIG1        0.0640
     53 H           4.3732   -6.5206   -6.2798 H       1  LIG1        0.0618
     54 H           6.0090   -7.7545   -7.6547 H       1  LIG1        0.0620
     55 H           8.3978   -7.9658   -6.9357 H       1  LIG1        0.0684
@<TRIPOS>BOND
     1     1     2    1
     2     2     3    1
     3     3     4    1
     4     4     5    1
     5     5     6    1
     6     6     7    1
     7     7     8    1
     8     8     9    1
     9     9    10    1
    10    10    11    1
    11    11    12    1
    12    12    13    1
    13    13    14   ar
    14    14    15   ar
    15    15    16    1
    16    15    17   ar
    17    17    18   ar
    18    18    19   ar
    19    19    20   ar
    20    20    21   ar
    21    21    22   ar
    22    17    22   ar
    23    13    22   ar
    24     1    23    1
    25     1    24    1
    26     1    25    1
    27     2    26    1
    28     2    27    1
    29     3    28    1
    30     3    29    1
    31     4    30    1
    32     4    31    1
    33     5    32    1
    34     5    33    1
    35     6    34    1
    36     6    35    1
    37     7    36    1
    38     7    37    1
    39     8    38    1
    40     8    39    1
    41     9    40    1
    42     9    41    1
    43    10    42    1
    44    10    43    1
    45    11    44    1
    46    11    45    1
    47    12    46    1
    48    12    47    1
    49    14    48    1
    50    16    49    1
    51    16    50    1
    52    16    51    1
    53    18    52    1
    54    19    53    1
    55    20    54    1
    56    21    55    1
