@<TRIPOS>MOLECULE
*****
 54 56 0 0 0
SMALL
GASTEIGER

@<TRIPOS>ATOM
      1 C           1.8207   -0.7992    1.1292 C.2     1  LIG1       -0.0904
      2 C           2.7659   -0.3146    0.3003 C.2     1  LIG1       -0.0176
      3 C           3.1252   -1.0494   -0.9457 C.ar    1  LIG1       -0.0178
      4 C           3.5524   -0.3458   -2.0826 C.ar    1  LIG1       -0.0533
      5 C           3.8955   -1.0132   -3.2646 C.ar    1  LIG1       -0.0472
      6 C           3.8401   -2.4094   -3.3257 C.ar    1  LIG1        0.0589
      7 C           4.1734   -3.1667   -4.5633 C.2     1  LIG1        0.3368
      8 O           3.6920   -4.2493   -4.8254 O.2     1  LIG1       -0.2451
      9 O           5.0931   -2.5599   -5.3485 O.3     1  LIG1       -0.4771
     10 C           3.4300   -3.1264   -2.1973 C.ar    1  LIG1       -0.0472
     11 C           3.0866   -2.4517   -1.0191 C.ar    1  LIG1       -0.0533
     12 C           3.3593    0.9858    0.7079 C.ar    1  LIG1       -0.0147
     13 C           2.7324    2.1741    0.2922 C.ar    1  LIG1       -0.0498
     14 C           3.2164    3.4539    0.6464 C.ar    1  LIG1       -0.0374
     15 C           4.4049    3.5327    1.4045 C.ar    1  LIG1       -0.0377
     16 C           5.0080    2.3307    1.8404 C.ar    1  LIG1       -0.0543
     17 C           4.5073    1.0634    1.5047 C.ar    1  LIG1       -0.0425
     18 C           5.1935   -0.1594    2.0487 C.3     1  LIG1       -0.0391
     19 C           5.0396    4.8703    1.8110 C.3     1  LIG1       -0.0095
     20 C           6.5590    4.8891    1.5177 C.3     1  LIG1       -0.0558
     21 C           4.8326    5.0806    3.3276 C.3     1  LIG1       -0.0558
     22 C           4.4298    6.0563    1.0316 C.3     1  LIG1       -0.0431
     23 C           2.9158    5.9630    0.9494 C.3     1  LIG1       -0.0431
     24 C           2.4563    4.7034    0.1806 C.3     1  LIG1       -0.0095
     25 C           0.9338    4.5765    0.4268 C.3     1  LIG1       -0.0558
     26 C           2.6881    4.8965   -1.3340 C.3     1  LIG1       -0.0558
     27 H           1.2830   -1.7207    0.9332 H       1  LIG1        0.0541
     28 H           1.5414   -0.2774    2.0410 H       1  LIG1        0.0541
     29 H           3.6141    0.7406   -2.0723 H       1  LIG1        0.0624
     30 H           4.1775   -0.4147   -4.1250 H       1  LIG1        0.0626
     31 H           5.4843   -1.7406   -4.9949 H       1  LIG1        0.2954
     32 H           3.3814   -4.2143   -2.2227 H       1  LIG1        0.0626
     33 H           2.7989   -3.0436   -0.1530 H       1  LIG1        0.0624
     34 H           1.8424    2.0873   -0.3289 H       1  LIG1        0.0627
     35 H           5.8925    2.3773    2.4734 H       1  LIG1        0.0623
     36 H           6.1618    0.0939    2.4949 H       1  LIG1        0.0278
     37 H           5.3900   -0.8870    1.2558 H       1  LIG1        0.0278
     38 H           4.5794   -0.6213    2.8285 H       1  LIG1        0.0278
     39 H           7.1154    4.1768    2.1358 H       1  LIG1        0.0238
     40 H           6.9844    5.8797    1.7175 H       1  LIG1        0.0238
     41 H           6.7620    4.6433    0.4685 H       1  LIG1        0.0238
     42 H           5.3479    4.3127    3.9165 H       1  LIG1        0.0238
     43 H           3.7739    5.0378    3.6057 H       1  LIG1        0.0238
     44 H           5.2257    6.0517    3.6493 H       1  LIG1        0.0238
     45 H           4.8446    6.1009    0.0168 H       1  LIG1        0.0274
     46 H           4.7086    7.0054    1.5078 H       1  LIG1        0.0274
     47 H           2.5243    6.8667    0.4645 H       1  LIG1        0.0274
     48 H           2.4977    5.9635    1.9641 H       1  LIG1        0.0274
     49 H           0.7212    4.3339    1.4747 H       1  LIG1        0.0238
     50 H           0.4716    3.8007   -0.1924 H       1  LIG1        0.0238
     51 H           0.4195    5.5157    0.1903 H       1  LIG1        0.0238
     52 H           3.7535    4.9339   -1.5856 H       1  LIG1        0.0238
     53 H           2.2270    5.8258   -1.6884 H       1  LIG1        0.0238
     54 H           2.2523    4.0756   -1.9156 H       1  LIG1        0.0238
@<TRIPOS>BOND
     1     1     2    2
     2     2     3    1
     3     3     4   ar
     4     4     5   ar
     5     5     6   ar
     6     6     7    1
     7     7     8    2
     8     7     9    1
     9     6    10   ar
    10    10    11   ar
    11     3    11   ar
    12     2    12    1
    13    12    13   ar
    14    13    14   ar
    15    14    15   ar
    16    15    16   ar
    17    16    17   ar
    18    12    17   ar
    19    17    18    1
    20    15    19    1
    21    19    20    1
    22    19    21    1
    23    19    22    1
    24    22    23    1
    25    23    24    1
    26    14    24    1
    27    24    25    1
    28    24    26    1
    29     1    27    1
    30     1    28    1
    31     4    29    1
    32     5    30    1
    33     9    31    1
    34    10    32    1
    35    11    33    1
    36    13    34    1
    37    16    35    1
    38    18    36    1
    39    18    37    1
    40    18    38    1
    41    20    39    1
    42    20    40    1
    43    20    41    1
    44    21    42    1
    45    21    43    1
    46    21    44    1
    47    22    45    1
    48    22    46    1
    49    23    47    1
    50    23    48    1
    51    25    49    1
    52    25    50    1
    53    25    51    1
    54    26    52    1
    55    26    53    1
    56    26    54    1
