WARNING: damped steplength 0.00238042 to 0.00230258
@<TRIPOS>MOLECULE
*****
 134 135 0 0 0
SMALL
GASTEIGER

@<TRIPOS>ATOM
      1 C          25.8886    0.0783  -28.9364 C.3     1  LIG1       -0.0653
      2 C          25.7684   -1.3185  -28.3918 C.3     1  LIG1       -0.0559
      3 C          26.7758   -2.3454  -28.8532 C.3     1  LIG1       -0.0533
      4 C          28.2503   -1.9128  -28.7606 C.3     1  LIG1       -0.0531
      5 C          28.9002   -1.8111  -27.3550 C.3     1  LIG1       -0.0531
      6 C          28.4683   -0.6622  -26.3659 C.3     1  LIG1       -0.0531
      7 C          27.1721   -0.8452  -25.4667 C.3     1  LIG1       -0.0531
      8 C          26.5820    0.3807  -24.7214 C.3     1  LIG1       -0.0531
      9 C          25.0597    0.2702  -24.2626 C.3     1  LIG1       -0.0531
     10 C          24.6663    1.4988  -23.4222 C.3     1  LIG1       -0.0531
     11 C          23.3203    1.5190  -22.6825 C.3     1  LIG1       -0.0531
     12 C          21.9330    1.5085  -23.3340 C.3     1  LIG1       -0.0530
     13 C          20.8825    1.6384  -22.1662 C.3     1  LIG1       -0.0526
     14 C          20.8010    0.4499  -21.1131 C.3     1  LIG1       -0.0430
     15 C          19.8835    0.4412  -19.8214 C.3     1  LIG1        0.0449
     16 C          19.8925    1.5383  -18.3329 C.2     1  LIG1        0.3072
     17 O          19.3475    2.4971  -18.0420 O.2     1  LIG1       -0.2509
     18 O          20.6447    0.8913  -17.3509 O.3     1  LIG1       -0.4608
     19 C          19.9209    0.7628  -16.0712 C.3     1  LIG1        0.1315
     20 C          18.5536    1.4384  -15.4912 C.3     1  LIG1        0.1604
     21 C          17.1167    0.9782  -16.0474 C.3     1  LIG1        0.0951
     22 O          16.5503    1.4622  -17.3289 O.3     1  LIG1       -0.3236
     23 P          17.2300    0.9738  -18.7452 P.3     1  LIG1        0.2128
     24 O          16.2952    0.3202  -19.7349 O.2     1  LIG1       -0.5172
     25 O          18.2164   -0.0078  -18.1491 O.co2   1  LIG1       -0.4373
     26 O          17.6527    2.5571  -19.4223 O.3     1  LIG1       -0.3221
     27 C          18.5341    3.2662  -20.5020 C.3     1  LIG1        0.0947
     28 C          18.9895    4.8577  -20.2363 C.3     1  LIG1       -0.0064
     29 N          19.5288    5.9549  -21.4715 N.4     1  LIG1        0.2385
     30 C          19.5792    7.3112  -20.6814 C.3     1  LIG1       -0.0417
     31 C          20.9461    5.9140  -22.0778 C.3     1  LIG1       -0.0417
     32 C          18.6041    6.0205  -22.7012 C.3     1  LIG1       -0.0417
     33 O          18.6153    0.9956  -14.0145 O.3     1  LIG1       -0.4555
     34 C          18.3741    1.7734  -12.9109 C.2     1  LIG1        0.3075
     35 O          17.9323    2.9078  -12.9318 O.2     1  LIG1       -0.2508
     36 C          18.8472    1.0994  -11.6058 C.3     1  LIG1        0.0450
     37 C          19.3689   -0.3457  -11.6740 C.3     1  LIG1       -0.0430
     38 C          18.3872   -1.4042  -12.1786 C.3     1  LIG1       -0.0526
     39 C          18.9221   -2.8533  -12.1967 C.3     1  LIG1       -0.0530
     40 C          20.1017   -3.2259  -13.1341 C.3     1  LIG1       -0.0531
     41 C          21.5142   -2.5516  -13.0972 C.3     1  LIG1       -0.0531
     42 C          22.4821   -2.8493  -11.9129 C.3     1  LIG1       -0.0531
     43 C          23.9351   -2.2317  -12.0545 C.3     1  LIG1       -0.0530
     44 C          24.9729   -2.7884  -11.0323 C.3     1  LIG1       -0.0516
     45 C          26.3129   -1.9770  -10.8780 C.3     1  LIG1       -0.0375
     46 C          27.2164   -2.3793   -9.6797 C.3     1  LIG1        0.0092
     47 N          26.7841   -1.9033   -8.3508 N.pl3   1  LIG1       -0.3421
     48 C          25.5247   -2.0774   -7.7991 C.ar    1  LIG1        0.0588
     49 C          24.3980   -1.5862   -8.4825 C.ar    1  LIG1       -0.0320
     50 C          23.0508   -1.8515   -8.1971 C.ar    1  LIG1        0.0238
     51 C          22.6711   -2.4082   -6.9896 C.ar    1  LIG1        0.3482
     52 N          21.2833   -2.5004   -6.6666 N.4     1  LIG1        0.2616
     53 O          20.5112   -1.7414   -7.2184 O.2     1  LIG1        0.0828
     54 O          20.7933   -3.4655   -5.8129 O.2     1  LIG1       -0.2384
     55 C          23.7302   -2.7252   -6.1254 C.ar    1  LIG1        0.2165
     56 N          23.6912   -3.1816   -4.8683 N.ar    1  LIG1       -0.0418
     57 O          25.0139   -3.2846   -4.4673 O.2     1  LIG1       -0.2413
     58 N          25.8982   -2.9669   -5.4853 N.ar    1  LIG1       -0.0468
     59 C          25.1455   -2.5734   -6.5230 C.ar    1  LIG1        0.1617
     60 H          25.5506    0.8136  -28.1927 H       1  LIG1        0.0230
     61 H          25.3001    0.1636  -29.8426 H       1  LIG1        0.0230
     62 H          26.9282    0.3374  -29.1391 H       1  LIG1        0.0230
     63 H          24.7441   -1.6875  -28.2558 H       1  LIG1        0.0263
     64 H          26.0718   -1.1529  -27.4188 H       1  LIG1        0.0263
     65 H          26.5269   -2.5679  -29.8916 H       1  LIG1        0.0265
     66 H          26.6552   -3.2703  -28.2712 H       1  LIG1        0.0265
     67 H          28.4291   -0.9884  -29.3186 H       1  LIG1        0.0265
     68 H          28.8116   -2.6721  -29.3266 H       1  LIG1        0.0265
     69 H          29.9808   -1.6715  -27.5652 H       1  LIG1        0.0265
     70 H          28.8507   -2.7854  -26.8584 H       1  LIG1        0.0265
     71 H          28.4994    0.2866  -26.9198 H       1  LIG1        0.0265
     72 H          29.3016   -0.5865  -25.6462 H       1  LIG1        0.0265
     73 H          27.3416   -1.7162  -24.8318 H       1  LIG1        0.0265
     74 H          26.2765   -1.1881  -25.9214 H       1  LIG1        0.0265
     75 H          26.6453    1.2718  -25.3598 H       1  LIG1        0.0265
     76 H          27.1972    0.5221  -23.8330 H       1  LIG1        0.0265
     77 H          24.9046   -0.6481  -23.6836 H       1  LIG1        0.0265
     78 H          24.3734    0.2352  -25.1202 H       1  LIG1        0.0265
     79 H          24.7697    2.4000  -24.0343 H       1  LIG1        0.0265
     80 H          25.4160    1.5849  -22.6206 H       1  LIG1        0.0265
     81 H          23.3444    2.4542  -22.1033 H       1  LIG1        0.0265
     82 H          23.3388    0.7014  -21.9634 H       1  LIG1        0.0265
     83 H          21.7235    0.6303  -23.9556 H       1  LIG1        0.0265
     84 H          21.8234    2.3895  -23.9913 H       1  LIG1        0.0265
     85 H          19.9172    1.8660  -22.6478 H       1  LIG1        0.0265
     86 H          21.2019    2.5382  -21.6324 H       1  LIG1        0.0265
     87 H          21.7825    0.2146  -20.7177 H       1  LIG1        0.0270
     88 H          20.5333   -0.4354  -21.7281 H       1  LIG1        0.0270
     89 H          19.9991   -0.5714  -19.3695 H       1  LIG1        0.0377
     90 H          18.8714    0.2907  -20.2386 H       1  LIG1        0.0377
     91 H          20.6988    1.0012  -15.3286 H       1  LIG1        0.0736
     92 H          19.7961   -0.3235  -16.0142 H       1  LIG1        0.0736
     93 H          18.6167    2.5299  -15.4711 H       1  LIG1        0.0792
     94 H          16.3807    1.3215  -15.2999 H       1  LIG1        0.0602
     95 H          17.0365   -0.1190  -15.9698 H       1  LIG1        0.0602
     96 H          17.9287    3.3211  -21.4022 H       1  LIG1        0.0618
     97 H          19.4707    2.7660  -20.7072 H       1  LIG1        0.0618
     98 H          19.7495    4.9924  -19.4519 H       1  LIG1        0.0838
     99 H          18.0772    5.3632  -19.9125 H       1  LIG1        0.0838
    100 H          20.5270    7.3294  -20.1234 H       1  LIG1        0.0778
    101 H          18.7557    7.3521  -19.9700 H       1  LIG1        0.0778
    102 H          19.5483    8.1569  -21.3771 H       1  LIG1        0.0778
    103 H          21.7064    5.8549  -21.3012 H       1  LIG1        0.0778
    104 H          21.0779    6.8786  -22.6172 H       1  LIG1        0.0778
    105 H          21.0217    5.1189  -22.8201 H       1  LIG1        0.0778
    106 H          19.1952    5.8298  -23.6144 H       1  LIG1        0.0778
    107 H          18.1964    7.0304  -22.8157 H       1  LIG1        0.0778
    108 H          17.8459    5.2479  -22.6355 H       1  LIG1        0.0778
    109 H          18.0654    1.1795  -10.8401 H       1  LIG1        0.0377
    110 H          19.6940    1.7138  -11.2591 H       1  LIG1        0.0377
    111 H          19.7287   -0.6412  -10.6790 H       1  LIG1        0.0270
    112 H          20.2378   -0.3157  -12.3217 H       1  LIG1        0.0270
    113 H          18.0428   -1.1601  -13.1870 H       1  LIG1        0.0265
    114 H          17.4877   -1.3782  -11.5450 H       1  LIG1        0.0265
    115 H          18.0630   -3.4659  -12.5347 H       1  LIG1        0.0265
    116 H          19.1177   -3.2108  -11.1808 H       1  LIG1        0.0265
    117 H          20.2523   -4.3086  -13.0226 H       1  LIG1        0.0265
    118 H          19.7160   -3.1025  -14.1589 H       1  LIG1        0.0265
    119 H          21.4183   -1.4770  -13.2417 H       1  LIG1        0.0265
    120 H          22.0249   -2.8975  -14.0054 H       1  LIG1        0.0265
    121 H          22.5954   -3.9328  -11.8096 H       1  LIG1        0.0265
    122 H          22.0160   -2.4828  -10.9926 H       1  LIG1        0.0265
    123 H          23.8590   -1.1371  -11.9702 H       1  LIG1        0.0265
    124 H          24.3418   -2.4603  -13.0416 H       1  LIG1        0.0265
    125 H          25.2144   -3.8366  -11.2176 H       1  LIG1        0.0266
    126 H          24.4341   -2.9157  -10.1115 H       1  LIG1        0.0266
    127 H          26.1654   -0.8876  -10.8394 H       1  LIG1        0.0280
    128 H          26.8961   -2.1554  -11.7910 H       1  LIG1        0.0280
    129 H          28.2138   -1.9357   -9.8445 H       1  LIG1        0.0461
    130 H          27.3889   -3.4629   -9.6896 H       1  LIG1        0.0461
    131 H          27.5006   -1.5376   -7.7277 H       1  LIG1        0.1461
    132 H          24.5605   -1.0137   -9.3902 H       1  LIG1        0.0639
    133 H          22.3067   -1.5991   -8.9517 H       1  LIG1        0.0688
    134 H          21.6015   -3.9119   -5.5221 H       1  LIG1        0.3886
@<TRIPOS>BOND
     1     1     2    1
     2     2     3    1
     3     3     4    1
     4     4     5    1
     5     5     6    1
     6     6     7    1
     7     7     8    1
     8     8     9    1
     9     9    10    1
    10    10    11    1
    11    11    12    1
    12    12    13    1
    13    13    14    1
    14    14    15    1
    15    15    16    1
    16    16    17    2
    17    16    18    1
    18    18    19    1
    19    19    20    1
    20    20    21    1
    21    21    22    1
    22    22    23    1
    23    23    24    2
    24    23    25    1
    25    23    26    1
    26    26    27    1
    27    27    28    1
    28    28    29    1
    29    29    30    1
    30    29    31    1
    31    29    32    1
    32    20    33    1
    33    33    34    1
    34    34    35    2
    35    34    36    1
    36    36    37    1
    37    37    38    1
    38    38    39    1
    39    39    40    1
    40    40    41    1
    41    41    42    1
    42    42    43    1
    43    43    44    1
    44    44    45    1
    45    45    46    1
    46    46    47    1
    47    47    48    1
    48    48    49   ar
    49    49    50   ar
    50    50    51   ar
    51    51    52    1
    52    52    53    2
    53    52    54    1
    54    51    55   ar
    55    55    56   ar
    56    56    57   ar
    57    57    58   ar
    58    58    59   ar
    59    48    59   ar
    60    55    59   ar
    61     1    60    1
    62     1    61    1
    63     1    62    1
    64     2    63    1
    65     2    64    1
    66     3    65    1
    67     3    66    1
    68     4    67    1
    69     4    68    1
    70     5    69    1
    71     5    70    1
    72     6    71    1
    73     6    72    1
    74     7    73    1
    75     7    74    1
    76     8    75    1
    77     8    76    1
    78     9    77    1
    79     9    78    1
    80    10    79    1
    81    10    80    1
    82    11    81    1
    83    11    82    1
    84    12    83    1
    85    12    84    1
    86    13    85    1
    87    13    86    1
    88    14    87    1
    89    14    88    1
    90    15    89    1
    91    15    90    1
    92    19    91    1
    93    19    92    1
    94    20    93    1
    95    21    94    1
    96    21    95    1
    97    27    96    1
    98    27    97    1
    99    28    98    1
   100    28    99    1
   101    30   100    1
   102    30   101    1
   103    30   102    1
   104    31   103    1
   105    31   104    1
   106    31   105    1
   107    32   106    1
   108    32   107    1
   109    32   108    1
   110    36   109    1
   111    36   110    1
   112    37   111    1
   113    37   112    1
   114    38   113    1
   115    38   114    1
   116    39   115    1
   117    39   116    1
   118    40   117    1
   119    40   118    1
   120    41   119    1
   121    41   120    1
   122    42   121    1
   123    42   122    1
   124    43   123    1
   125    43   124    1
   126    44   125    1
   127    44   126    1
   128    45   127    1
   129    45   128    1
   130    46   129    1
   131    46   130    1
   132    47   131    1
   133    49   132    1
   134    50   133    1
   135    54   134    1
