@<TRIPOS>MOLECULE
*****
 82 84 0 0 0
SMALL
GASTEIGER

@<TRIPOS>ATOM
      1 C          13.0896    7.1563   -1.1866 C.3     1  LIG1       -0.0653
      2 C          14.1310    6.2100   -1.7872 C.3     1  LIG1       -0.0559
      3 C          14.3317    4.8574   -1.0772 C.3     1  LIG1       -0.0533
      4 C          14.8398    5.0078    0.3291 C.3     1  LIG1       -0.0531
      5 C          15.0504    3.6673    1.0781 C.3     1  LIG1       -0.0531
      6 C          15.3579    3.4895    2.5910 C.3     1  LIG1       -0.0531
      7 C          16.4733    4.2686    3.1775 C.3     1  LIG1       -0.0531
      8 C          16.7055    5.5967    2.5516 C.3     1  LIG1       -0.0531
      9 C          15.9140    6.5520    3.2802 C.3     1  LIG1       -0.0531
     10 C          14.4741    6.2824    3.1346 C.3     1  LIG1       -0.0531
     11 C          13.3760    6.9212    3.8776 C.3     1  LIG1       -0.0531
     12 C          13.1637    8.3730    3.5022 C.3     1  LIG1       -0.0531
     13 C          14.2518    9.3809    3.9399 C.3     1  LIG1       -0.0530
     14 C          15.5814    9.2070    3.2465 C.3     1  LIG1       -0.0522
     15 C          16.8726    9.9352    3.5412 C.3     1  LIG1       -0.0422
     16 C          18.1474    9.4704    2.7472 C.3     1  LIG1        0.0096
     17 C          18.7783    8.1960    3.0502 C.1     1  LIG1       -0.0940
     18 C          19.3164    7.0170    3.2917 C.1     1  LIG1       -0.0280
     19 C          19.5676    5.6662    3.6967 C.ar    1  LIG1        0.1904
     20 N          19.9363    5.4914    4.9618 N.ar    1  LIG1       -0.2149
     21 C          19.5732    4.2218    5.3160 C.ar    1  LIG1        0.1486
     22 C          19.6245    3.5747    6.5597 C.ar    1  LIG1        0.1472
     23 N          20.3065    4.1158    7.6374 N.pl3   1  LIG1       -0.3413
     24 N          18.9752    2.4079    6.7286 N.ar    1  LIG1       -0.2188
     25 C          18.3607    1.8795    5.6557 C.ar    1  LIG1        0.1205
     26 N          18.4080    2.3190    4.3708 N.ar    1  LIG1       -0.2159
     27 C          19.0447    3.5197    4.2520 C.ar    1  LIG1        0.1683
     28 N          19.2002    4.3860    3.1260 N.ar    1  LIG1       -0.2723
     29 C1*        18.7313    4.0859    1.7472 C.3     1  LIG1        0.1677
     30 O4*        18.8939    5.2252    0.8864 O.3     1  LIG1       -0.3456
     31 C4*        19.2926    4.6644   -0.3428 C.3     1  LIG1        0.1126
     32 H4*        18.4362    4.3210   -0.9523 H       1  LIG1        0.0647
     33 C5*        20.0357    5.7644   -1.0472 C.3     1  LIG1        0.0730
     34 O5*        20.6953    5.2603   -2.1865 O.3     1  LIG1       -0.3924
     35 C3*        20.1507    3.5032    0.1619 C.3     1  LIG1        0.1135
     36 H3*        20.9776    3.9024    0.7638 H       1  LIG1        0.0647
     37 O3*        20.6086    2.6507   -0.8477 O.3     1  LIG1       -0.3864
     38 C2*        19.2317    2.8053    1.1185 C.3     1  LIG1        0.1286
     39 H2*        19.6229    2.1089    1.8560 H       1  LIG1        0.0665
     40 O2*        18.2029    2.0835    0.3977 O.3     1  LIG1       -0.3847
     41 H          13.1505    8.1315   -1.6854 H       1  LIG1        0.0230
     42 H          13.2339    7.3399   -0.1182 H       1  LIG1        0.0230
     43 H          12.0741    6.7770   -1.3373 H       1  LIG1        0.0230
     44 H          15.0849    6.7508   -1.8466 H       1  LIG1        0.0263
     45 H          13.8276    5.9832   -2.8128 H       1  LIG1        0.0263
     46 H          15.0657    4.2616   -1.6257 H       1  LIG1        0.0265
     47 H          13.3849    4.3239   -1.0053 H       1  LIG1        0.0265
     48 H          14.0335    5.5491    0.7833 H       1  LIG1        0.0265
     49 H          15.7192    5.6327    0.1848 H       1  LIG1        0.0265
     50 H          15.8039    3.1186    0.5053 H       1  LIG1        0.0265
     51 H          14.1101    3.1296    0.9863 H       1  LIG1        0.0265
     52 H          15.6258    2.4369    2.7580 H       1  LIG1        0.0265
     53 H          14.5179    3.5941    3.2610 H       1  LIG1        0.0265
     54 H          17.1824    3.4911    3.0172 H       1  LIG1        0.0265
     55 H          16.5923    4.3772    4.2607 H       1  LIG1        0.0265
     56 H          16.6873    5.7740    1.4914 H       1  LIG1        0.0265
     57 H          17.6728    5.9931    2.6485 H       1  LIG1        0.0265
     58 H          16.2184    7.3505    2.6162 H       1  LIG1        0.0265
     59 H          16.2725    6.6272    4.3147 H       1  LIG1        0.0265
     60 H          14.3110    5.2726    3.4197 H       1  LIG1        0.0265
     61 H          14.2787    6.4977    2.1076 H       1  LIG1        0.0265
     62 H          13.5058    6.7247    4.9415 H       1  LIG1        0.0265
     63 H          12.4921    6.3398    3.5522 H       1  LIG1        0.0265
     64 H          12.2285    8.6462    3.9931 H       1  LIG1        0.0265
     65 H          12.9966    8.4334    2.4174 H       1  LIG1        0.0265
     66 H          14.4191    9.2153    5.0121 H       1  LIG1        0.0265
     67 H          13.9156   10.3928    3.7589 H       1  LIG1        0.0265
     68 H          15.4513    9.0096    2.1695 H       1  LIG1        0.0266
     69 H          15.8455    8.3962    3.8819 H       1  LIG1        0.0266
     70 H          17.0814    9.8052    4.6094 H       1  LIG1        0.0274
     71 H          16.6640   10.9818    3.3335 H       1  LIG1        0.0274
     72 H          18.9101   10.2224    2.9802 H       1  LIG1        0.0397
     73 H          17.9471    9.5582    1.6669 H       1  LIG1        0.0397
     74 H          20.3773    5.1266    7.5895 H       1  LIG1        0.1438
     75 H          20.0418    3.6904    8.5131 H       1  LIG1        0.1438
     76 H          17.7735    0.9829    5.8664 H       1  LIG1        0.1048
     77 H1*        17.6847    3.9231    1.5178 H       1  LIG1        0.0867
     78 H5*1       19.3416    6.5683   -1.3274 H       1  LIG1        0.0584
     79 H5*2       20.7576    6.2136   -0.3549 H       1  LIG1        0.0584
     80 H5*        21.0106    4.3636   -1.9564 H       1  LIG1        0.2095
     81 H3*        21.2490    2.0630   -0.4072 H       1  LIG1        0.2100
     82 H2*        18.6131    1.7055   -0.4043 H       1  LIG1        0.2101
@<TRIPOS>BOND
     1     1     2    1
     2     2     3    1
     3     3     4    1
     4     4     5    1
     5     5     6    1
     6     6     7    1
     7     7     8    1
     8     8     9    1
     9     9    10    1
    10    10    11    1
    11    11    12    1
    12    12    13    1
    13    13    14    1
    14    14    15    1
    15    15    16    1
    16    16    17    1
    17    17    18    3
    18    18    19    1
    19    19    20   ar
    20    20    21   ar
    21    21    22   ar
    22    22    23    1
    23    22    24   ar
    24    24    25   ar
    25    25    26   ar
    26    26    27   ar
    27    21    27   ar
    28    27    28   ar
    29    19    28   ar
    30    28    29    1
    31    29    30    1
    32    30    31    1
    33    33    34    1
    34    31    35    1
    35    35    36    1
    36    35    37    1
    37    35    38    1
    38    38    39    1
    39    29    38    1
    40    38    40    1
    41    31    33    1
    42    31    32    1
    43     1    41    1
    44     1    42    1
    45     1    43    1
    46     2    44    1
    47     2    45    1
    48     3    46    1
    49     3    47    1
    50     4    48    1
    51     4    49    1
    52     5    50    1
    53     5    51    1
    54     6    52    1
    55     6    53    1
    56     7    54    1
    57     7    55    1
    58     8    56    1
    59     8    57    1
    60     9    58    1
    61     9    59    1
    62    10    60    1
    63    10    61    1
    64    11    62    1
    65    11    63    1
    66    12    64    1
    67    12    65    1
    68    13    66    1
    69    13    67    1
    70    14    68    1
    71    14    69    1
    72    15    70    1
    73    15    71    1
    74    16    72    1
    75    16    73    1
    76    23    74    1
    77    23    75    1
    78    25    76    1
    79    29    77    1
    80    33    78    1
    81    33    79    1
    82    34    80    1
    83    37    81    1
    84    40    82    1
