@<TRIPOS>MOLECULE
*****
 70 73 0 0 0
SMALL
GASTEIGER

@<TRIPOS>ATOM
      1 C          -0.2806    7.3319    3.2549 C.3     1  LIG1       -0.0627
      2 C           0.8206    7.9690    2.4055 C.3     1  LIG1       -0.0467
      3 C           0.6295    9.4909    2.3936 C.3     1  LIG1       -0.0627
      4 C           2.2395    7.6016    2.9024 C.3     1  LIG1       -0.0507
      5 C           2.5651    6.0999    2.7949 C.3     1  LIG1       -0.0526
      6 C           4.0019    5.7719    3.2653 C.3     1  LIG1       -0.0502
      7 C           4.3470    4.2573    3.2637 C.3     1  LIG1       -0.0405
      8 H           3.5580    3.7395    3.8251 H       1  LIG1        0.0301
      9 C           4.3014    3.6717    1.8352 C.3     1  LIG1       -0.0621
     10 C           5.7078    3.8605    3.9360 C.3     1  LIG1       -0.0322
     11 C           6.9643    4.5023    3.2780 C.3     1  LIG1       -0.0489
     12 C           7.8326    5.0698    4.4037 C.3     1  LIG1       -0.0454
     13 C           6.8426    5.3182    5.5406 C.3     1  LIG1       -0.0096
     14 C           7.4683    5.5219    6.9022 C.2     1  LIG1       -0.0400
     15 C           7.5490    6.7531    7.4593 C.2     1  LIG1       -0.0580
     16 C           7.9135    6.9358    8.8419 C.2     1  LIG1       -0.0613
     17 C           8.4563    5.9356    9.5574 C.2     1  LIG1       -0.0569
     18 C           8.6212    6.0612   11.0519 C.3     1  LIG1       -0.0045
     19 C           9.7327    5.1764   11.6096 C.3     1  LIG1        0.0590
     20 H          10.6984    5.5447   11.2464 H       1  LIG1        0.0596
     21 O           9.7784    5.2802   13.0327 O.3     1  LIG1       -0.3915
     22 C           9.5687    3.7071   11.2154 C.3     1  LIG1       -0.0255
     23 C           8.7241    3.4774    9.9561 C.3     1  LIG1       -0.0375
     24 C           8.8165    4.6000    8.8869 C.3     1  LIG1        0.0143
     25 C          10.2622    4.6697    8.3340 C.3     1  LIG1       -0.0518
     26 C           7.8897    4.3433    7.6685 C.2     1  LIG1       -0.0379
     27 C           7.4937    3.1118    7.2668 C.2     1  LIG1       -0.0792
     28 C           6.6455    2.8396    6.0637 C.3     1  LIG1       -0.0279
     29 C           5.9079    4.0859    5.4784 C.3     1  LIG1       -0.0188
     30 C           4.6404    4.3102    6.3225 C.3     1  LIG1       -0.0585
     31 H          -1.2704    7.6554    2.9121 H       1  LIG1        0.0232
     32 H          -0.1807    7.6139    4.3079 H       1  LIG1        0.0232
     33 H          -0.2611    6.2410    3.1837 H       1  LIG1        0.0232
     34 H           0.7012    7.6110    1.3748 H       1  LIG1        0.0295
     35 H           0.9996    9.9492    3.3168 H       1  LIG1        0.0232
     36 H          -0.4281    9.7599    2.2881 H       1  LIG1        0.0232
     37 H           1.1656    9.9412    1.5516 H       1  LIG1        0.0232
     38 H           2.3601    7.9305    3.9425 H       1  LIG1        0.0268
     39 H           2.9745    8.1599    2.3083 H       1  LIG1        0.0268
     40 H           2.4314    5.8064    1.7495 H       1  LIG1        0.0265
     41 H           1.8538    5.5196    3.3929 H       1  LIG1        0.0265
     42 H           4.1069    6.1695    4.2757 H       1  LIG1        0.0268
     43 H           4.7133    6.3243    2.6444 H       1  LIG1        0.0268
     44 H           3.4314    4.0137    1.2704 H       1  LIG1        0.0233
     45 H           4.2342    2.5780    1.8763 H       1  LIG1        0.0233
     46 H           5.1931    3.9254    1.2531 H       1  LIG1        0.0233
     47 H           5.7886    2.7769    3.7579 H       1  LIG1        0.0309
     48 H           6.7032    5.2999    2.5767 H       1  LIG1        0.0268
     49 H           7.5332    3.7564    2.7092 H       1  LIG1        0.0268
     50 H           8.3412    5.9893    4.0942 H       1  LIG1        0.0271
     51 H           8.6125    4.3510    4.6828 H       1  LIG1        0.0271
     52 H           6.2589    6.2116    5.2782 H       1  LIG1        0.0354
     53 H           7.2156    7.6313    6.9184 H       1  LIG1        0.0620
     54 H           7.6362    7.8803    9.3044 H       1  LIG1        0.0618
     55 H           7.6725    5.7846   11.5323 H       1  LIG1        0.0335
     56 H           8.8077    7.1024   11.3440 H       1  LIG1        0.0335
     57 H           8.9278    4.9638   13.3831 H       1  LIG1        0.2098
     58 H           9.1365    3.1234   12.0382 H       1  LIG1        0.0290
     59 H          10.5687    3.2804   11.0620 H       1  LIG1        0.0290
     60 H           7.6751    3.3633   10.2652 H       1  LIG1        0.0278
     61 H           9.0265    2.5087    9.5398 H       1  LIG1        0.0278
     62 H          11.0012    4.8906    9.1095 H       1  LIG1        0.0241
     63 H          10.3705    5.4466    7.5674 H       1  LIG1        0.0241
     64 H          10.5512    3.7172    7.8732 H       1  LIG1        0.0241
     65 H           7.8186    2.2258    7.7976 H       1  LIG1        0.0575
     66 H           5.9067    2.0687    6.3218 H       1  LIG1        0.0313
     67 H           7.3047    2.3779    5.3164 H       1  LIG1        0.0313
     68 H           4.8894    4.4627    7.3796 H       1  LIG1        0.0235
     69 H           3.9682    3.4483    6.2710 H       1  LIG1        0.0235
     70 H           4.0784    5.1953    6.0253 H       1  LIG1        0.0235
@<TRIPOS>BOND
     1     1     2    1
     2     2     3    1
     3     2     4    1
     4     4     5    1
     5     5     6    1
     6     6     7    1
     7     7     8    1
     8     7     9    1
     9     7    10    1
    10    10    11    1
    11    11    12    1
    12    12    13    1
    13    13    14    1
    14    14    15    2
    15    15    16    1
    16    16    17    2
    17    17    18    1
    18    18    19    1
    19    19    22    1
    20    22    23    1
    21    23    24    1
    22    17    24    1
    23    24    25    1
    24    24    26    1
    25    14    26    1
    26    26    27    2
    27    27    28    1
    28    28    29    1
    29    13    29    1
    30    10    29    1
    31    29    30    1
    32    19    21    1
    33    19    20    1
    34     1    31    1
    35     1    32    1
    36     1    33    1
    37     2    34    1
    38     3    35    1
    39     3    36    1
    40     3    37    1
    41     4    38    1
    42     4    39    1
    43     5    40    1
    44     5    41    1
    45     6    42    1
    46     6    43    1
    47     9    44    1
    48     9    45    1
    49     9    46    1
    50    10    47    1
    51    11    48    1
    52    11    49    1
    53    12    50    1
    54    12    51    1
    55    13    52    1
    56    15    53    1
    57    16    54    1
    58    18    55    1
    59    18    56    1
    60    21    57    1
    61    22    58    1
    62    22    59    1
    63    23    60    1
    64    23    61    1
    65    25    62    1
    66    25    63    1
    67    25    64    1
    68    27    65    1
    69    28    66    1
    70    28    67    1
    71    30    68    1
    72    30    69    1
    73    30    70    1
