WARNING: damped steplength 10.4329 to 1.72502
@<TRIPOS>MOLECULE
*****
 26 27 0 0 0
SMALL
GASTEIGER

@<TRIPOS>ATOM
      1 CL          0.8783   -0.5422    0.2007 Cl      1  LIG1       -0.0698
      2 C           2.6043   -0.3709    0.0458 C.2     1  LIG1        0.1148
      3 CL          3.5127   -1.0575    1.3632 Cl      1  LIG1       -0.0698
      4 C           3.1898    0.2436   -1.0088 C.2     1  LIG1        0.0189
      5 C           2.3540    0.8063   -2.0972 C.ar    1  LIG1       -0.0150
      6 C           2.0083    0.0169   -3.2029 C.ar    1  LIG1       -0.0526
      7 C           1.2244    0.5491   -4.2296 C.ar    1  LIG1       -0.0428
      8 C           0.7871    1.8702   -4.1536 C.ar    1  LIG1        0.0410
      9 CL         -0.1778    2.5246   -5.4186 Cl      1  LIG1       -0.0835
     10 C           1.1263    2.6650   -3.0601 C.ar    1  LIG1       -0.0428
     11 C           1.9101    2.1344   -2.0324 C.ar    1  LIG1       -0.0526
     12 C           4.6674    0.3542   -1.0762 C.ar    1  LIG1       -0.0150
     13 C           5.3191    1.4643   -0.5212 C.ar    1  LIG1       -0.0526
     14 C           6.7106    1.5695   -0.5891 C.ar    1  LIG1       -0.0428
     15 C           7.4515    0.5672   -1.2126 C.ar    1  LIG1        0.0410
     16 CL          9.1649    0.6979   -1.2958 Cl      1  LIG1       -0.0835
     17 C           6.8142   -0.5400   -1.7695 C.ar    1  LIG1       -0.0428
     18 C           5.4228   -0.6469   -1.7027 C.ar    1  LIG1       -0.0526
     19 H           2.3427   -1.0157   -3.2717 H       1  LIG1        0.0624
     20 H           0.9591   -0.0702   -5.0823 H       1  LIG1        0.0632
     21 H           0.7844    3.6949   -3.0013 H       1  LIG1        0.0632
     22 H           2.1674    2.7631   -1.1831 H       1  LIG1        0.0624
     23 H           4.7509    2.2514   -0.0309 H       1  LIG1        0.0624
     24 H           7.2084    2.4323   -0.1545 H       1  LIG1        0.0632
     25 H           7.3927   -1.3215   -2.2551 H       1  LIG1        0.0632
     26 H           4.9360   -1.5160   -2.1392 H       1  LIG1        0.0624
@<TRIPOS>BOND
     1     1     2    1
     2     2     3    1
     3     2     4    2
     4     4     5    1
     5     5     6   ar
     6     6     7   ar
     7     7     8   ar
     8     8     9    1
     9     8    10   ar
    10    10    11   ar
    11     5    11   ar
    12     4    12    1
    13    12    13   ar
    14    13    14   ar
    15    14    15   ar
    16    15    16    1
    17    15    17   ar
    18    17    18   ar
    19    12    18   ar
    20     6    19    1
    21     7    20    1
    22    10    21    1
    23    11    22    1
    24    13    23    1
    25    14    24    1
    26    17    25    1
    27    18    26    1
