@<TRIPOS>MOLECULE
*****
 72 75 0 0 0
SMALL
GASTEIGER

@<TRIPOS>ATOM
      1 C           0.4841    2.3823    2.8800 C.3     1  LIG1       -0.0621
      2 C           1.8813    1.7993    3.1134 C.3     1  LIG1       -0.0403
      3 H           1.7161    0.7200    3.2599 H       1  LIG1        0.0301
      4 C           2.5107    2.2857    4.4406 C.3     1  LIG1       -0.0467
      5 C           1.6041    2.1986    5.6733 C.3     1  LIG1       -0.0343
      6 C           2.3151    2.7090    6.8985 C.2     1  LIG1       -0.0853
      7 C           2.3508    3.9830    7.3402 C.2     1  LIG1       -0.0796
      8 C           1.7109    5.1582    6.6489 C.3     1  LIG1       -0.0440
      9 C           3.0861    4.3382    8.6049 C.3     1  LIG1       -0.0440
     10 C           2.8629    1.8926    1.8811 C.3     1  LIG1       -0.0328
     11 H           3.7318    1.2821    2.1646 H       1  LIG1        0.0309
     12 C           2.2144    1.2554    0.6368 C.3     1  LIG1       -0.0492
     13 C           1.6031    2.4096   -0.1636 C.3     1  LIG1       -0.0492
     14 C           2.2457    3.7076    0.3501 C.3     1  LIG1       -0.0320
     15 H           1.4808    4.2306    0.9376 H       1  LIG1        0.0309
     16 C           3.3788    3.2647    1.3080 C.3     1  LIG1       -0.0259
     17 C           4.7260    3.0887    0.5201 C.3     1  LIG1       -0.0468
     18 C           4.5932    2.9323   -0.9992 C.3     1  LIG1       -0.0486
     19 C           3.8259    4.0922   -1.6713 C.3     1  LIG1       -0.0285
     20 H           4.5880    4.8869   -1.7255 H       1  LIG1        0.0312
     21 C           2.7601    4.7038   -0.7153 C.3     1  LIG1       -0.0307
     22 H           3.2853    5.4834   -0.1439 H       1  LIG1        0.0309
     23 C           1.6323    5.4758   -1.4089 C.3     1  LIG1       -0.0311
     24 C           1.0802    4.7632   -2.5849 C.2     1  LIG1       -0.0839
     25 C           1.8555    4.0099   -3.3866 C.2     1  LIG1       -0.0648
     26 C           3.3626    3.8510   -3.1801 C.3     1  LIG1       -0.0078
     27 C           3.8192    2.4928   -3.8185 C.3     1  LIG1       -0.0413
     28 C           2.7916    1.3541   -3.7346 C.3     1  LIG1       -0.0258
     29 C           1.4090    1.7439   -4.2841 C.3     1  LIG1        0.0590
     30 H           0.6358    1.4157   -3.5775 H       1  LIG1        0.0596
     31 C           1.2581    3.2459   -4.5337 C.3     1  LIG1       -0.0051
     32 O           1.1663    1.0568   -5.5120 O.3     1  LIG1       -0.3915
     33 C           4.0466    4.9652   -4.0271 C.3     1  LIG1       -0.0556
     34 C           3.6390    4.3534    2.3603 C.3     1  LIG1       -0.0590
     35 H           0.5096    3.4665    2.7590 H       1  LIG1        0.0233
     36 H          -0.1885    2.1531    3.7115 H       1  LIG1        0.0233
     37 H          -0.0002    1.9333    2.0101 H       1  LIG1        0.0233
     38 H           2.8001    3.3292    4.3664 H       1  LIG1        0.0271
     39 H           3.4331    1.7188    4.6216 H       1  LIG1        0.0271
     40 H           1.2904    1.1626    5.8428 H       1  LIG1        0.0307
     41 H           0.6869    2.7785    5.5317 H       1  LIG1        0.0307
     42 H           2.8396    1.9416    7.4658 H       1  LIG1        0.0571
     43 H           1.2691    4.9066    5.6815 H       1  LIG1        0.0274
     44 H           2.4581    5.9382    6.4646 H       1  LIG1        0.0274
     45 H           0.9214    5.5823    7.2779 H       1  LIG1        0.0274
     46 H           3.5342    3.4617    9.0841 H       1  LIG1        0.0274
     47 H           2.3995    4.7964    9.3243 H       1  LIG1        0.0274
     48 H           3.8908    5.0489    8.3899 H       1  LIG1        0.0274
     49 H           1.4759    0.4822    0.8719 H       1  LIG1        0.0268
     50 H           2.9829    0.7512    0.0405 H       1  LIG1        0.0268
     51 H           0.5188    2.4520   -0.0160 H       1  LIG1        0.0268
     52 H           1.7390    2.2463   -1.2286 H       1  LIG1        0.0268
     53 H           5.2963    2.2432    0.9236 H       1  LIG1        0.0271
     54 H           5.3704    3.9638    0.6845 H       1  LIG1        0.0271
     55 H           4.1371    1.9694   -1.2220 H       1  LIG1        0.0268
     56 H           5.6051    2.8880   -1.4234 H       1  LIG1        0.0268
     57 H           1.9963    6.4559   -1.7356 H       1  LIG1        0.0310
     58 H           0.8235    5.6737   -0.6953 H       1  LIG1        0.0310
     59 H           0.0190    4.8694   -2.7809 H       1  LIG1        0.0572
     60 H           4.7791    2.1579   -3.4135 H       1  LIG1        0.0274
     61 H           4.0200    2.6423   -4.8892 H       1  LIG1        0.0274
     62 H           2.6864    1.0398   -2.6927 H       1  LIG1        0.0290
     63 H           3.1837    0.4802   -4.2687 H       1  LIG1        0.0290
     64 H           0.1969    3.4826   -4.6818 H       1  LIG1        0.0335
     65 H           1.7453    3.5355   -5.4743 H       1  LIG1        0.0335
     66 H           1.1213    0.1077   -5.3056 H       1  LIG1        0.2098
     67 H           3.7909    5.9663   -3.6607 H       1  LIG1        0.0238
     68 H           3.7502    4.9205   -5.0816 H       1  LIG1        0.0238
     69 H           5.1382    4.8638   -3.9903 H       1  LIG1        0.0238
     70 H           2.7146    4.6782    2.8468 H       1  LIG1        0.0235
     71 H           4.0678    5.2585    1.9159 H       1  LIG1        0.0235
     72 H           4.3582    4.0089    3.1107 H       1  LIG1        0.0235
@<TRIPOS>BOND
     1     2     4    1
     2     4     5    1
     3     5     6    1
     4     6     7    2
     5     7     8    1
     6     7     9    1
     7    10    12    1
     8    12    13    1
     9    13    14    1
    10    14    16    1
    11    10    16    1
    12    16    17    1
    13    17    18    1
    14    18    19    1
    15    19    21    1
    16    14    21    1
    17    21    23    1
    18    23    24    1
    19    24    25    2
    20    25    26    1
    21    19    26    1
    22    26    27    1
    23    27    28    1
    24    28    29    1
    25    29    31    1
    26    25    31    1
    27     2    10    1
    28    10    11    1
    29    14    15    1
    30    16    34    1
    31    19    20    1
    32    21    22    1
    33    26    33    1
    34    29    30    1
    35    29    32    1
    36     2     3    1
    37     2     1    1
    38     1    35    1
    39     1    36    1
    40     1    37    1
    41     4    38    1
    42     4    39    1
    43     5    40    1
    44     5    41    1
    45     6    42    1
    46     8    43    1
    47     8    44    1
    48     8    45    1
    49     9    46    1
    50     9    47    1
    51     9    48    1
    52    12    49    1
    53    12    50    1
    54    13    51    1
    55    13    52    1
    56    17    53    1
    57    17    54    1
    58    18    55    1
    59    18    56    1
    60    23    57    1
    61    23    58    1
    62    24    59    1
    63    27    60    1
    64    27    61    1
    65    28    62    1
    66    28    63    1
    67    31    64    1
    68    31    65    1
    69    32    66    1
    70    33    67    1
    71    33    68    1
    72    33    69    1
    73    34    70    1
    74    34    71    1
    75    34    72    1
