WARNING: damped steplength 0.0324207 to 0.0067693
WARNING: damped steplength 0.0226694 to 0.0077044
@<TRIPOS>MOLECULE
*****
 52 54 0 0 0
SMALL
GASTEIGER

@<TRIPOS>ATOM
      1 C          12.2167   -3.1985   -4.6696 C.3     1  LIG1        0.0366
      2 O          12.4791   -2.0291   -3.9146 O.3     1  LIG1       -0.3796
      3 C          11.6041   -0.9678   -4.2767 C.3     1  LIG1        0.0814
      4 C          11.7950    0.1600   -3.2727 C.3     1  LIG1        0.1130
      5 O          10.8395    1.1749   -3.6091 O.3     1  LIG1       -0.4860
      6 C          10.6061    2.3283   -2.9112 C.ar    1  LIG1        0.1628
      7 C          11.4132    3.0463   -2.0367 C.ar    1  LIG1        0.1641
      8 C          10.8516    4.1612   -1.3715 C.ar    1  LIG1        0.0098
      9 C           9.5942    4.6796   -1.6764 C.ar    1  LIG1        0.0797
     10 C           8.8116    4.0604   -2.6567 C.ar    1  LIG1        0.0441
     11 C           9.3412    2.8734   -3.2438 C.ar    1  LIG1       -0.0038
     12 C           7.5841    4.7247   -2.9620 C.ar    1  LIG1        0.1340
     13 N           7.2056    5.8446   -2.3149 N.ar    1  LIG1       -0.2200
     14 C           8.0447    6.3234   -1.3941 C.ar    1  LIG1        0.1187
     15 N           9.2131    5.7864   -1.0360 N.ar    1  LIG1       -0.2352
     16 N           6.6809    4.1920   -3.9402 N.pl3   1  LIG1       -0.2988
     17 C           5.6978    4.9518   -4.6517 C.ar    1  LIG1        0.0335
     18 C           4.4710    4.3655   -5.0091 C.ar    1  LIG1       -0.0404
     19 C           3.4629    5.1138   -5.6353 C.ar    1  LIG1       -0.0589
     20 C           3.6987    6.4362   -6.0014 C.ar    1  LIG1       -0.0462
     21 C           4.9663    6.9810   -5.8089 C.ar    1  LIG1        0.0264
     22 C           5.9545    6.2482   -5.1332 C.ar    1  LIG1       -0.0251
     23 C           5.2608    8.2855   -6.3734 C.1     1  LIG1       -0.0696
     24 C           5.4824    9.3092   -6.8972 C.1     1  LIG1       -0.1139
     25 O          12.7236    2.8337   -1.7372 O.3     1  LIG1       -0.4860
     26 C          13.6652    2.4461   -2.7521 C.3     1  LIG1        0.1130
     27 C          13.2802    2.4313   -4.2628 C.3     1  LIG1        0.0814
     28 O          12.6957    3.6188   -4.7745 O.3     1  LIG1       -0.3796
     29 C          11.9571    3.3159   -5.9721 C.3     1  LIG1        0.0366
     30 H          11.2282   -3.5872   -4.4112 H       1  LIG1        0.0524
     31 H          12.9714   -3.9431   -4.4084 H       1  LIG1        0.0524
     32 H          12.2772   -2.9940   -5.7428 H       1  LIG1        0.0524
     33 H          10.5558   -1.2638   -4.2670 H       1  LIG1        0.0593
     34 H          11.8539   -0.6431   -5.3045 H       1  LIG1        0.0593
     35 H          12.8600    0.3534   -3.4327 H       1  LIG1        0.0720
     36 H          11.7381   -0.0857   -2.2188 H       1  LIG1        0.0720
     37 H          11.4246    4.6962   -0.6104 H       1  LIG1        0.0677
     38 H           8.7694    2.3568   -4.0110 H       1  LIG1        0.0663
     39 H           7.7651    7.2461   -0.8973 H       1  LIG1        0.1048
     40 H           6.2455    3.3743   -3.5175 H       1  LIG1        0.1536
     41 H           4.2692    3.3214   -4.7879 H       1  LIG1        0.0636
     42 H           2.4943    4.6655   -5.8448 H       1  LIG1        0.0619
     43 H           2.9072    7.0221   -6.4655 H       1  LIG1        0.0630
     44 H           6.9367    6.6915   -4.9873 H       1  LIG1        0.0648
     45 H           5.6862   10.2400   -7.4144 H       1  LIG1        0.1232
     46 H          14.0499    1.4713   -2.4076 H       1  LIG1        0.0720
     47 H          14.5386    3.0971   -2.6531 H       1  LIG1        0.0720
     48 H          12.5548    1.7015   -4.5431 H       1  LIG1        0.0593
     49 H          14.1127    2.0553   -4.8643 H       1  LIG1        0.0593
     50 H          11.6951    4.2628   -6.4342 H       1  LIG1        0.0524
     51 H          11.0237    2.7561   -5.7925 H       1  LIG1        0.0524
     52 H          12.5792    2.7232   -6.6514 H       1  LIG1        0.0524
@<TRIPOS>BOND
     1     1     2    1
     2     2     3    1
     3     3     4    1
     4     4     5    1
     5     5     6    1
     6     6     7   ar
     7     7     8   ar
     8     8     9   ar
     9     9    10   ar
    10    10    11   ar
    11     6    11   ar
    12    10    12   ar
    13    12    13   ar
    14    13    14   ar
    15    14    15   ar
    16     9    15   ar
    17    12    16    1
    18    16    17    1
    19    17    18   ar
    20    18    19   ar
    21    19    20   ar
    22    20    21   ar
    23    21    22   ar
    24    17    22   ar
    25    21    23    1
    26    23    24    3
    27     7    25    1
    28    25    26    1
    29    26    27    1
    30    27    28    1
    31    28    29    1
    32     1    30    1
    33     1    31    1
    34     1    32    1
    35     3    33    1
    36     3    34    1
    37     4    35    1
    38     4    36    1
    39     8    37    1
    40    11    38    1
    41    14    39    1
    42    16    40    1
    43    18    41    1
    44    19    42    1
    45    20    43    1
    46    22    44    1
    47    24    45    1
    48    26    46    1
    49    26    47    1
    50    27    48    1
    51    27    49    1
    52    29    50    1
    53    29    51    1
    54    29    52    1
