@<TRIPOS>MOLECULE
*****
 15 15 0 0 0
SMALL
GASTEIGER

@<TRIPOS>ATOM
      1 C          -1.1242   -0.7104    0.0571 C.ar    1  LIG1        0.0594
      2 C           0.0798   -1.2804   -0.0783 C.ar    1  LIG1        0.2302
      3 N           1.2596   -0.5930   -0.1964 N.ar    1  LIG1       -0.2078
      4 C           1.1873    0.7178   -0.1741 C.ar    1  LIG1        0.1921
      5 C          -0.1448    1.4685   -0.0749 C.ar    1  LIG1        0.2796
      6 O          -0.2232    2.6819   -0.1544 O.2     1  LIG1       -0.2654
      7 N          -1.2459    0.6516    0.0667 N.ar    1  LIG1       -0.3230
      8 C           2.5107    1.4623   -0.2676 C.2     1  LIG1        0.2653
      9 O           2.7312    2.4699    0.3800 O.2     1  LIG1       -0.2686
     10 N           3.4444    0.8644   -1.0739 N.am    1  LIG1       -0.3239
     11 F           0.1508   -2.6280   -0.0949 F       1  LIG1       -0.1823
     12 H          -2.0304   -1.2975    0.1519 H       1  LIG1        0.0853
     13 H          -2.1500    1.1028    0.1401 H       1  LIG1        0.1685
     14 H           3.2955   -0.0958   -1.3642 H       1  LIG1        0.1453
     15 H           4.3889    1.2226   -1.0393 H       1  LIG1        0.1453
@<TRIPOS>BOND
     1     1     2   ar
     2     2     3   ar
     3     3     4   ar
     4     4     5   ar
     5     5     6    2
     6     5     7   ar
     7     1     7   ar
     8     4     8    1
     9     8     9    2
    10     8    10   am
    11     2    11    1
    12     1    12    1
    13     7    13    1
    14    10    14    1
    15    10    15    1
