@<TRIPOS>MOLECULE
*****
 56 59 0 0 0
SMALL
GASTEIGER

@<TRIPOS>ATOM
      1 C           1.8864    2.9327    3.2901 C.3     1  LIG1        0.0117
      2 C           1.1783    3.3028    4.6148 C.3     1  LIG1        0.0118
      3 N          -0.2486    2.9764    4.6646 N.3     1  LIG1       -0.2977
      4 C          -0.8414    2.7757    3.3467 C.3     1  LIG1        0.0118
      5 C          -0.0599    1.7046    2.5253 C.3     1  LIG1        0.0117
      6 N           1.4279    1.7059    2.6479 N.3     1  LIG1       -0.2999
      7 C           1.8951    0.4721    3.2982 C.3     1  LIG1        0.0004
      8 C           3.4057    0.2154    3.4074 C.3     1  LIG1       -0.0240
      9 C           3.7921   -1.1330    4.0730 C.3     1  LIG1        0.0185
     10 N           3.3861   -2.3553    3.2886 N.pl3   1  LIG1       -0.2983
     11 C           2.1272   -2.8534    3.7507 C.ar    1  LIG1        0.0479
     12 C           0.9608   -2.5149    3.0311 C.ar    1  LIG1       -0.0393
     13 C          -0.3054   -2.8554    3.4970 C.ar    1  LIG1       -0.0599
     14 C          -0.4323   -3.6586    4.6044 C.ar    1  LIG1       -0.0606
     15 C           0.7108   -4.1479    5.2419 C.ar    1  LIG1       -0.0462
     16 C           1.9894   -3.7575    4.8082 C.ar    1  LIG1        0.0341
     17 S           3.4271   -4.5280    5.5399 S.3     1  LIG1       -0.0857
     18 C           4.5535   -4.3924    4.1574 C.ar    1  LIG1        0.0341
     19 C           4.4756   -3.2967    3.2643 C.ar    1  LIG1        0.0484
     20 C           5.4163   -3.1996    2.2261 C.ar    1  LIG1       -0.0276
     21 C           6.3866   -4.1932    2.0329 C.ar    1  LIG1        0.0566
     22 C           6.4133   -5.2948    2.8970 C.ar    1  LIG1       -0.0490
     23 C           5.5052   -5.3950    3.9536 C.ar    1  LIG1       -0.0457
     24 C           7.3778   -4.0932    0.9006 C.3     1  LIG1        0.4175
     25 F           7.2114   -2.9915    0.1193 F       1  LIG1       -0.1659
     26 F           8.6635   -4.0426    1.3476 F       1  LIG1       -0.1659
     27 F           7.3176   -5.1623    0.0588 F       1  LIG1       -0.1659
     28 C          -1.0393    3.7417    5.6291 C.3     1  LIG1        0.0222
     29 C          -1.0961    5.2769    5.5270 C.3     1  LIG1        0.0569
     30 O          -1.9419    5.7713    6.5692 O.3     1  LIG1       -0.3937
     31 H           2.9703    2.9188    3.4385 H       1  LIG1        0.0439
     32 H           1.7152    3.7423    2.5680 H       1  LIG1        0.0439
     33 H           1.3591    4.3702    4.7717 H       1  LIG1        0.0439
     34 H           1.6645    2.7634    5.4352 H       1  LIG1        0.0439
     35 H          -0.8732    3.7162    2.7833 H       1  LIG1        0.0439
     36 H          -1.8777    2.4259    3.4460 H       1  LIG1        0.0439
     37 H          -0.3018    1.8510    1.4653 H       1  LIG1        0.0439
     38 H          -0.4727    0.7159    2.7778 H       1  LIG1        0.0439
     39 H           1.5520   -0.2691    2.5976 H       1  LIG1        0.0427
     40 H           1.4093    0.3075    4.2678 H       1  LIG1        0.0427
     41 H           3.8625    1.0098    4.0106 H       1  LIG1        0.0293
     42 H           3.8594    0.2680    2.4110 H       1  LIG1        0.0293
     43 H           3.4141   -1.1646    5.1047 H       1  LIG1        0.0468
     44 H           4.8897   -1.0989    4.1747 H       1  LIG1        0.0468
     45 H           1.0467   -1.9823    2.0939 H       1  LIG1        0.0636
     46 H          -1.1841   -2.4889    2.9629 H       1  LIG1        0.0618
     47 H          -1.4119   -3.9641    4.9546 H       1  LIG1        0.0618
     48 H           0.6115   -4.8581    6.0527 H       1  LIG1        0.0629
     49 H           5.3482   -2.3572    1.5358 H       1  LIG1        0.0642
     50 H           7.1335   -6.0985    2.7390 H       1  LIG1        0.0623
     51 H           5.5330   -6.2611    4.6036 H       1  LIG1        0.0629
     52 H          -0.6732    3.4919    6.6334 H       1  LIG1        0.0449
     53 H          -2.0715    3.3665    5.6284 H       1  LIG1        0.0449
     54 H          -1.5119    5.6002    4.5685 H       1  LIG1        0.0570
     55 H          -0.1105    5.7318    5.6634 H       1  LIG1        0.0570
     56 H          -2.1388    6.7030    6.3725 H       1  LIG1        0.2095
@<TRIPOS>BOND
     1     1     2    1
     2     2     3    1
     3     3     4    1
     4     4     5    1
     5     5     6    1
     6     1     6    1
     7     6     7    1
     8     7     8    1
     9     8     9    1
    10     9    10    1
    11    10    11    1
    12    11    12   ar
    13    12    13   ar
    14    13    14   ar
    15    14    15   ar
    16    15    16   ar
    17    11    16   ar
    18    16    17    1
    19    17    18    1
    20    18    19   ar
    21    10    19    1
    22    19    20   ar
    23    20    21   ar
    24    21    22   ar
    25    22    23   ar
    26    18    23   ar
    27    21    24    1
    28    24    25    1
    29    24    26    1
    30    24    27    1
    31     3    28    1
    32    28    29    1
    33    29    30    1
    34     1    31    1
    35     1    32    1
    36     2    33    1
    37     2    34    1
    38     4    35    1
    39     4    36    1
    40     5    37    1
    41     5    38    1
    42     7    39    1
    43     7    40    1
    44     8    41    1
    45     8    42    1
    46     9    43    1
    47     9    44    1
    48    12    45    1
    49    13    46    1
    50    14    47    1
    51    15    48    1
    52    20    49    1
    53    22    50    1
    54    23    51    1
    55    28    52    1
    56    28    53    1
    57    29    54    1
    58    29    55    1
    59    30    56    1
