@<TRIPOS>MOLECULE
*****
 27 29 0 0 0
SMALL
GASTEIGER

@<TRIPOS>ATOM
      1 O           0.7858    0.0255    0.3435 O.2     1  LIG1       -0.2870
      2 C           2.0020   -0.0133    0.2120 C.ar    1  LIG1        0.1931
      3 C           2.7162   -1.2979    0.1369 C.ar    1  LIG1        0.0287
      4 C           4.0487   -1.3009   -0.0155 C.ar    1  LIG1        0.1392
      5 C           4.8166   -2.5593   -0.0874 C.ar    1  LIG1        0.0174
      6 C           6.0298   -2.6807    0.6071 C.ar    1  LIG1       -0.0511
      7 C           6.7754   -3.8607    0.5439 C.ar    1  LIG1       -0.0611
      8 C           6.3208   -4.9326   -0.2204 C.ar    1  LIG1       -0.0617
      9 C           5.1237   -4.8248   -0.9244 C.ar    1  LIG1       -0.0611
     10 C           4.3773   -3.6449   -0.8610 C.ar    1  LIG1       -0.0511
     11 O           4.8275   -0.1559   -0.0923 O.2     1  LIG1       -0.4546
     12 C           4.2023    1.0637   -0.0292 C.ar    1  LIG1        0.1392
     13 C           5.0080    2.1986   -0.1195 C.ar    1  LIG1       -0.0186
     14 C           4.4296    3.4687   -0.0605 C.ar    1  LIG1       -0.0582
     15 C           3.0476    3.6043    0.0887 C.ar    1  LIG1       -0.0609
     16 C           2.2403    2.4695    0.1791 C.ar    1  LIG1       -0.0474
     17 C           2.8248    1.2011    0.1193 C.ar    1  LIG1        0.0640
     18 H           2.1132   -2.1925    0.2208 H       1  LIG1        0.0693
     19 H           6.4023   -1.8559    1.2113 H       1  LIG1        0.0625
     20 H           7.7111   -3.9409    1.0912 H       1  LIG1        0.0618
     21 H           6.9014   -5.8502   -0.2708 H       1  LIG1        0.0618
     22 H           4.7716   -5.6576   -1.5279 H       1  LIG1        0.0618
     23 H           3.4552   -3.5814   -1.4346 H       1  LIG1        0.0625
     24 H           6.0837    2.0961   -0.2367 H       1  LIG1        0.0654
     25 H           5.0570    4.3543   -0.1314 H       1  LIG1        0.0619
     26 H           2.5993    4.5941    0.1343 H       1  LIG1        0.0618
     27 H           1.1637    2.5734    0.2953 H       1  LIG1        0.0626
@<TRIPOS>BOND
     1     1     2    2
     2     2     3   ar
     3     3     4   ar
     4     4     5    1
     5     5     6   ar
     6     6     7   ar
     7     7     8   ar
     8     8     9   ar
     9     9    10   ar
    10     5    10   ar
    11     4    11   ar
    12    11    12   ar
    13    12    13   ar
    14    13    14   ar
    15    14    15   ar
    16    15    16   ar
    17    16    17   ar
    18     2    17   ar
    19    12    17   ar
    20     3    18    1
    21     6    19    1
    22     7    20    1
    23     8    21    1
    24     9    22    1
    25    10    23    1
    26    13    24    1
    27    14    25    1
    28    15    26    1
    29    16    27    1
