@<TRIPOS>MOLECULE
*****
 30 31 0 0 0
SMALL
GASTEIGER

@<TRIPOS>ATOM
      1 O           4.7229   -0.3510   -5.3841 O.2     1  LIG1       -0.2451
      2 C           3.9322   -0.6454   -4.5084 C.2     1  LIG1        0.3386
      3 O           3.2448   -1.8086   -4.4964 O.3     1  LIG1       -0.4771
      4 C           3.5799    0.2780   -3.3950 C.ar    1  LIG1        0.0799
      5 C           3.6501    1.6522   -3.6780 C.ar    1  LIG1       -0.0460
      6 C           3.2886    2.5934   -2.7151 C.ar    1  LIG1       -0.0609
      7 C           2.8899    2.1712   -1.4525 C.ar    1  LIG1       -0.0600
      8 C           2.8533    0.8093   -1.1528 C.ar    1  LIG1       -0.0397
      9 C           3.1592   -0.1614   -2.1232 C.ar    1  LIG1        0.0454
     10 N           3.1113   -1.5477   -1.7996 N.pl3   1  LIG1       -0.3138
     11 C           2.2537   -2.1561   -0.8483 C.ar    1  LIG1        0.0319
     12 C           0.9501   -1.6853   -0.6357 C.ar    1  LIG1       -0.0405
     13 C           0.0891   -2.3181    0.2597 C.ar    1  LIG1       -0.0595
     14 C           0.5006   -3.4723    0.9188 C.ar    1  LIG1       -0.0500
     15 C           1.7808   -3.9965    0.6921 C.ar    1  LIG1        0.0566
     16 C           2.2223   -5.2808    1.3490 C.3     1  LIG1        0.4175
     17 F           1.2702   -5.8453    2.1425 F       1  LIG1       -0.1659
     18 F           2.5610   -6.2340    0.4372 F       1  LIG1       -0.1659
     19 F           3.3181   -5.1131    2.1391 F       1  LIG1       -0.1659
     20 C           2.6524   -3.3243   -0.1868 C.ar    1  LIG1       -0.0289
     21 H           2.6536   -1.9001   -3.7174 H       1  LIG1        0.2954
     22 H           3.9714    1.9913   -4.6620 H       1  LIG1        0.0626
     23 H           3.3221    3.6545   -2.9497 H       1  LIG1        0.0618
     24 H           2.6103    2.8986   -0.6941 H       1  LIG1        0.0618
     25 H           2.5738    0.5134   -0.1437 H       1  LIG1        0.0636
     26 H           4.0645   -1.9155   -1.7354 H       1  LIG1        0.1522
     27 H           0.5844   -0.8118   -1.1708 H       1  LIG1        0.0636
     28 H          -0.9080   -1.9170    0.4250 H       1  LIG1        0.0618
     29 H          -0.1912   -3.9721    1.5955 H       1  LIG1        0.0623
     30 H           3.6502   -3.7310   -0.3481 H       1  LIG1        0.0642
@<TRIPOS>BOND
     1     1     2    2
     2     2     3    1
     3     2     4    1
     4     4     5   ar
     5     5     6   ar
     6     6     7   ar
     7     7     8   ar
     8     8     9   ar
     9     4     9   ar
    10     9    10    1
    11    10    11    1
    12    11    12   ar
    13    12    13   ar
    14    13    14   ar
    15    14    15   ar
    16    15    16    1
    17    16    17    1
    18    16    18    1
    19    16    19    1
    20    15    20   ar
    21    11    20   ar
    22     3    21    1
    23     5    22    1
    24     6    23    1
    25     7    24    1
    26     8    25    1
    27    10    26    1
    28    12    27    1
    29    13    28    1
    30    14    29    1
    31    20    30    1
