@<TRIPOS>MOLECULE
*****
 29 30 0 0 0
SMALL
GASTEIGER

@<TRIPOS>ATOM
      1 C           1.0206   -0.0743   -0.0534 C.3     1  LIG1       -0.0567
      2 C           2.5371   -0.0985   -0.0046 C.3     1  LIG1       -0.0007
      3 C           3.1866    1.1356   -0.6945 C.3     1  LIG1       -0.0445
      4 C           4.6228    1.1218   -0.1419 C.3     1  LIG1       -0.0490
      5 C           4.6150   -0.0968    0.8086 C.3     1  LIG1       -0.0329
      6 H           5.4363   -0.0873    1.5290 H       1  LIG1        0.0307
      7 C           3.1887   -0.0719    1.4147 C.3     1  LIG1       -0.0242
      8 C           2.8751   -1.2700    2.3316 C.3     1  LIG1       -0.0590
      9 C           2.8814    1.1879    2.2527 C.3     1  LIG1       -0.0590
     10 C           4.6047   -1.3592   -0.0872 C.3     1  LIG1       -0.0230
     11 C           3.1864   -1.3395   -0.6901 C.3     1  LIG1        0.0614
     12 H           3.2181   -1.2296   -1.7800 H       1  LIG1        0.0599
     13 O           2.4899   -2.5419   -0.4096 O.3     1  LIG1       -0.3912
     14 H           0.6222    0.8368    0.4049 H       1  LIG1        0.0236
     15 H           0.5846   -0.9277    0.4754 H       1  LIG1        0.0236
     16 H           0.6655   -0.1059   -1.0890 H       1  LIG1        0.0236
     17 H           2.6781    2.0710   -0.4366 H       1  LIG1        0.0272
     18 H           3.1767    1.0573   -1.7873 H       1  LIG1        0.0272
     19 H           4.8419    2.0496    0.3968 H       1  LIG1        0.0268
     20 H           5.3647    1.0253   -0.9416 H       1  LIG1        0.0268
     21 H           3.0979   -2.2475    1.9029 H       1  LIG1        0.0235
     22 H           1.8158   -1.2763    2.6117 H       1  LIG1        0.0235
     23 H           3.4611   -1.2039    3.2561 H       1  LIG1        0.0235
     24 H           3.0490    2.1337    1.7337 H       1  LIG1        0.0235
     25 H           3.5081    1.2098    3.1520 H       1  LIG1        0.0235
     26 H           1.8346    1.1891    2.5774 H       1  LIG1        0.0235
     27 H           4.7969   -2.2678    0.4927 H       1  LIG1        0.0293
     28 H           5.3698   -1.3015   -0.8692 H       1  LIG1        0.0293
     29 H           3.0024   -3.2726   -0.7965 H       1  LIG1        0.2098
@<TRIPOS>BOND
     1     1     2    1
     2     2     3    1
     3     3     4    1
     4     4     5    1
     5     5     6    1
     6     5     7    1
     7     2     7    1
     8     7     8    1
     9     7     9    1
    10     5    10    1
    11    10    11    1
    12    11    12    1
    13     2    11    1
    14    11    13    1
    15     1    14    1
    16     1    15    1
    17     1    16    1
    18     3    17    1
    19     3    18    1
    20     4    19    1
    21     4    20    1
    22     8    21    1
    23     8    22    1
    24     8    23    1
    25     9    24    1
    26     9    25    1
    27     9    26    1
    28    10    27    1
    29    10    28    1
    30    13    29    1
