@<TRIPOS>MOLECULE
*****
 33 33 0 0 0
SMALL
GASTEIGER

@<TRIPOS>ATOM
      1 C           0.7417   -1.1191   -0.1530 C.3     1  LIG1       -0.0624
      2 C           2.2190   -1.2891   -0.5367 C.3     1  LIG1       -0.0427
      3 C           2.5632   -0.2881   -1.6413 C.3     1  LIG1       -0.0624
      4 C           3.1167   -1.1497    0.7103 C.3     1  LIG1       -0.0253
      5 C           4.6053   -1.3026    0.4705 C.ar    1  LIG1       -0.0471
      6 C           5.4086   -0.1745    0.2579 C.ar    1  LIG1       -0.0583
      7 C           6.7954   -0.2945    0.1180 C.ar    1  LIG1       -0.0575
      8 C           7.4162   -1.5496    0.1835 C.ar    1  LIG1       -0.0339
      9 C           6.6061   -2.6842    0.3447 C.ar    1  LIG1       -0.0575
     10 C           5.2175   -2.5611    0.4904 C.ar    1  LIG1       -0.0583
     11 C           8.9334   -1.6539    0.0711 C.3     1  LIG1        0.0784
     12 C           9.5388   -2.2873    1.3300 C.3     1  LIG1       -0.0482
     13 C           9.4283   -2.3680   -1.1881 C.2     1  LIG1        0.3119
     14 O          10.4644   -3.0083   -1.2500 O.2     1  LIG1       -0.2503
     15 O           8.6703   -2.1575   -2.2925 O.3     1  LIG1       -0.4802
     16 H           0.1000   -1.1628   -1.0405 H       1  LIG1        0.0232
     17 H           0.5613   -0.1559    0.3386 H       1  LIG1        0.0232
     18 H           0.4180   -1.9120    0.5289 H       1  LIG1        0.0232
     19 H           2.3455   -2.2985   -0.9472 H       1  LIG1        0.0299
     20 H           2.3783    0.7428   -1.3211 H       1  LIG1        0.0232
     21 H           1.9519   -0.4798   -2.5302 H       1  LIG1        0.0232
     22 H           3.6081   -0.3723   -1.9513 H       1  LIG1        0.0232
     23 H           2.8149   -1.9045    1.4503 H       1  LIG1        0.0316
     24 H           2.9346   -0.1838    1.2007 H       1  LIG1        0.0316
     25 H           4.9576    0.8150    0.2143 H       1  LIG1        0.0620
     26 H           7.3845    0.6101   -0.0232 H       1  LIG1        0.0621
     27 H           7.0470   -3.6798    0.3770 H       1  LIG1        0.0621
     28 H           4.6212   -3.4583    0.6456 H       1  LIG1        0.0620
     29 H           9.3495   -0.6393   -0.0029 H       1  LIG1        0.0459
     30 H           9.1248   -3.2811    1.5317 H       1  LIG1        0.0241
     31 H           9.3491   -1.6607    2.2087 H       1  LIG1        0.0241
     32 H          10.6244   -2.4039    1.2364 H       1  LIG1        0.0241
     33 H           7.8632   -1.6313   -2.1294 H       1  LIG1        0.2951
@<TRIPOS>BOND
     1     1     2    1
     2     2     3    1
     3     2     4    1
     4     4     5    1
     5     5     6   ar
     6     6     7   ar
     7     7     8   ar
     8     8     9   ar
     9     9    10   ar
    10     5    10   ar
    11     8    11    1
    12    11    12    1
    13    11    13    1
    14    13    14    2
    15    13    15    1
    16     1    16    1
    17     1    17    1
    18     1    18    1
    19     2    19    1
    20     3    20    1
    21     3    21    1
    22     3    22    1
    23     4    23    1
    24     4    24    1
    25     6    25    1
    26     7    26    1
    27     9    27    1
    28    10    28    1
    29    11    29    1
    30    12    30    1
    31    12    31    1
    32    12    32    1
    33    15    33    1
