@<TRIPOS>MOLECULE
*****
 16 17 0 0 0
SMALL
GASTEIGER

@<TRIPOS>ATOM
      1 C           2.1636   -0.6822   -0.0735 C.ar    1  LIG1       -0.0611
      2 C           2.1421    0.7111   -0.0828 C.ar    1  LIG1       -0.0598
      3 C           0.9340    1.4143   -0.0454 C.ar    1  LIG1       -0.0378
      4 C          -0.2487    0.6666   -0.0019 C.ar    1  LIG1        0.0465
      5 N          -1.5616    1.0796    0.0372 N.ar    1  LIG1       -0.3606
      6 H          -1.8575    2.0458    0.0412 H       1  LIG1        0.1653
      7 C          -2.3988   -0.0044    0.0657 C.ar    1  LIG1        0.0027
      8 C          -1.6191   -1.1383    0.0510 C.ar    1  LIG1       -0.0367
      9 C          -0.2578   -0.7285    0.0073 C.ar    1  LIG1       -0.0004
     10 C           0.9715   -1.4145   -0.0272 C.ar    1  LIG1       -0.0526
     11 H           3.1146   -1.2082   -0.1033 H       1  LIG1        0.0618
     12 H           3.0795    1.2614   -0.1200 H       1  LIG1        0.0618
     13 H           0.9214    2.4991   -0.0518 H       1  LIG1        0.0638
     14 H          -3.4723    0.1243    0.0937 H       1  LIG1        0.0807
     15 H          -1.9854   -2.1563    0.0676 H       1  LIG1        0.0638
     16 H           0.9962   -2.4999   -0.0201 H       1  LIG1        0.0624
@<TRIPOS>BOND
     1     1     2   ar
     2     2     3   ar
     3     3     4   ar
     4     4     5   ar
     5     5     6    1
     6     5     7   ar
     7     7     8   ar
     8     8     9   ar
     9     4     9   ar
    10     9    10   ar
    11     1    10   ar
    12     1    11    1
    13     2    12    1
    14     3    13    1
    15     7    14    1
    16     8    15    1
    17    10    16    1
