@<TRIPOS>MOLECULE
*****
 68 72 0 0 0
SMALL
GASTEIGER

@<TRIPOS>ATOM
      1 C           0.6815    0.7756    0.8667 C.3     1  LIG1       -0.0380
      2 C           2.1022    0.6674    0.3983 C.ar    1  LIG1       -0.0291
      3 C           2.7181    1.6550   -0.3949 C.ar    1  LIG1        0.0383
      4 C           3.9993    1.3917   -0.9089 C.ar    1  LIG1       -0.0190
      5 C           4.7088    0.2365   -0.5735 C.ar    1  LIG1        0.0354
      6 C           4.1202   -0.6971    0.2834 C.ar    1  LIG1       -0.0401
      7 C           2.8219   -0.4894    0.7481 C.ar    1  LIG1       -0.0553
      8 N           6.0230   -0.0173   -1.0304 N.am    1  LIG1       -0.2814
      9 C           6.6367    0.5877   -2.1236 C.2     1  LIG1        0.2483
     10 O           6.1148    1.4095   -2.8625 O.2     1  LIG1       -0.2699
     11 C           8.0166    0.1132   -2.4795 C.ar    1  LIG1        0.0370
     12 C           8.7005   -0.8806   -1.7700 C.ar    1  LIG1       -0.0493
     13 C           9.8949   -1.4089   -2.2644 C.ar    1  LIG1       -0.0566
     14 C          10.4447   -0.9585   -3.4719 C.ar    1  LIG1       -0.0333
     15 C           9.8071    0.1065   -4.1342 C.ar    1  LIG1       -0.0566
     16 C           8.6123    0.6374   -3.6403 C.ar    1  LIG1       -0.0493
     17 C          11.6424   -1.6604   -4.0711 C.3     1  LIG1        0.0241
     18 N          11.2928   -2.8352   -4.8939 N.3     1  LIG1       -0.2957
     19 C          12.5242   -3.5191   -5.3513 C.3     1  LIG1        0.0120
     20 C          12.2040   -4.7537   -6.2210 C.3     1  LIG1        0.0114
     21 N          11.4646   -4.3638   -7.4343 N.3     1  LIG1       -0.3029
     22 C          10.2237   -3.6756   -7.0305 C.3     1  LIG1        0.0114
     23 C          10.4992   -2.4722   -6.0916 C.3     1  LIG1        0.0120
     24 C          11.1846   -5.5318   -8.2632 C.3     1  LIG1       -0.0127
     25 N           2.1695    2.9249   -0.6489 N.pl3   1  LIG1       -0.2833
     26 C           1.2268    3.6702    0.0536 C.ar    1  LIG1        0.2200
     27 N           0.3747    4.3884   -0.6903 N.ar    1  LIG1       -0.2226
     28 C          -0.5987    5.0386   -0.0335 C.ar    1  LIG1        0.0332
     29 C          -0.7227    5.0435    1.3370 C.ar    1  LIG1       -0.0174
     30 C           0.2379    4.3498    2.0505 C.ar    1  LIG1        0.0775
     31 N           1.1967    3.6478    1.4058 N.ar    1  LIG1       -0.2142
     32 C           0.2875    4.3518    3.5352 C.ar    1  LIG1        0.0186
     33 C          -0.0425    5.4896    4.2784 C.ar    1  LIG1        0.0367
     34 N          -0.0634    5.5807    5.6359 N.ar    1  LIG1       -0.2626
     35 C           0.2779    4.4743    6.3220 C.ar    1  LIG1        0.0276
     36 C           0.6545    3.2940    5.7086 C.ar    1  LIG1       -0.0430
     37 C           0.6675    3.2408    4.3069 C.ar    1  LIG1       -0.0497
     38 H           0.0525    1.2573    0.1110 H       1  LIG1        0.0278
     39 H           0.6388    1.3251    1.8059 H       1  LIG1        0.0278
     40 H           0.2419   -0.2094    1.0462 H       1  LIG1        0.0278
     41 H           4.4669    2.1501   -1.5295 H       1  LIG1        0.0655
     42 H           4.6350   -1.6087    0.5723 H       1  LIG1        0.0636
     43 H           2.3573   -1.2378    1.3867 H       1  LIG1        0.0621
     44 H           6.4985   -0.7637   -0.5510 H       1  LIG1        0.1551
     45 H           8.3232   -1.2967   -0.8441 H       1  LIG1        0.0625
     46 H          10.3856   -2.2037   -1.7083 H       1  LIG1        0.0621
     47 H          10.2153    0.4900   -5.0690 H       1  LIG1        0.0621
     48 H           8.1264    1.4408   -4.1929 H       1  LIG1        0.0625
     49 H          12.2636   -1.9999   -3.2295 H       1  LIG1        0.0476
     50 H          12.2561   -0.9433   -4.6284 H       1  LIG1        0.0476
     51 H          13.1139   -3.8525   -4.4897 H       1  LIG1        0.0439
     52 H          13.1537   -2.8295   -5.9318 H       1  LIG1        0.0439
     53 H          11.6293   -5.4804   -5.6300 H       1  LIG1        0.0439
     54 H          13.1477   -5.2351   -6.5036 H       1  LIG1        0.0439
     55 H           9.5429   -4.3723   -6.5226 H       1  LIG1        0.0439
     56 H           9.7032   -3.3023   -7.9210 H       1  LIG1        0.0439
     57 H           9.5236   -2.0770   -5.7903 H       1  LIG1        0.0439
     58 H          11.0154   -1.6883   -6.6623 H       1  LIG1        0.0439
     59 H          12.1210   -6.0236   -8.5512 H       1  LIG1        0.0391
     60 H          10.6880   -5.2360   -9.1935 H       1  LIG1        0.0391
     61 H          10.5559   -6.2682   -7.7504 H       1  LIG1        0.0391
     62 H           2.2524    3.2465   -1.6052 H       1  LIG1        0.1550
     63 H          -1.3004    5.5784   -0.6641 H       1  LIG1        0.0831
     64 H          -1.5359    5.5774    1.8102 H       1  LIG1        0.0654
     65 H          -0.3057    6.4228    3.7875 H       1  LIG1        0.0836
     66 H           0.2377    4.5634    7.4051 H       1  LIG1        0.0829
     67 H           0.9274    2.4318    6.3087 H       1  LIG1        0.0633
     68 H           0.9720    2.3137    3.8283 H       1  LIG1        0.0625
@<TRIPOS>BOND
     1     1     2    1
     2     2     3   ar
     3     3     4   ar
     4     4     5   ar
     5     5     6   ar
     6     6     7   ar
     7     2     7   ar
     8     5     8    1
     9     8     9   am
    10     9    10    2
    11     9    11    1
    12    11    12   ar
    13    12    13   ar
    14    13    14   ar
    15    14    15   ar
    16    15    16   ar
    17    11    16   ar
    18    14    17    1
    19    17    18    1
    20    18    19    1
    21    19    20    1
    22    20    21    1
    23    21    22    1
    24    22    23    1
    25    18    23    1
    26    21    24    1
    27     3    25    1
    28    25    26    1
    29    26    27   ar
    30    27    28   ar
    31    28    29   ar
    32    29    30   ar
    33    30    31   ar
    34    26    31   ar
    35    30    32    1
    36    32    33   ar
    37    33    34   ar
    38    34    35   ar
    39    35    36   ar
    40    36    37   ar
    41    32    37   ar
    42     1    38    1
    43     1    39    1
    44     1    40    1
    45     4    41    1
    46     6    42    1
    47     7    43    1
    48     8    44    1
    49    12    45    1
    50    13    46    1
    51    15    47    1
    52    16    48    1
    53    17    49    1
    54    17    50    1
    55    19    51    1
    56    19    52    1
    57    20    53    1
    58    20    54    1
    59    22    55    1
    60    22    56    1
    61    23    57    1
    62    23    58    1
    63    24    59    1
    64    24    60    1
    65    24    61    1
    66    25    62    1
    67    28    63    1
    68    29    64    1
    69    33    65    1
    70    35    66    1
    71    36    67    1
    72    37    68    1
