@<TRIPOS>MOLECULE
*****
 31 33 0 0 0
SMALL
GASTEIGER

@<TRIPOS>ATOM
      1 O           0.8649   -0.0547    0.1355 O.2     1  LIG1       -0.2869
      2 C           2.0846   -0.0138    0.0508 C.ar    1  LIG1        0.1966
      3 C           2.8371   -1.2811    0.0172 C.ar    1  LIG1        0.0288
      4 C           4.1734   -1.2605   -0.0641 C.ar    1  LIG1        0.1393
      5 C           4.9698   -2.5030   -0.0867 C.ar    1  LIG1        0.0211
      6 C           6.1520   -2.5924    0.6732 C.ar    1  LIG1       -0.0474
      7 C           6.9328   -3.7544    0.6645 C.ar    1  LIG1       -0.0159
      8 C           6.5319   -4.8307   -0.1141 C.ar    1  LIG1        0.1583
      9 O           7.2484   -5.9935   -0.1670 O.3     1  LIG1       -0.5033
     10 C           5.3706   -4.7501   -0.8766 C.ar    1  LIG1        0.1589
     11 O           4.9860   -5.8115   -1.6455 O.3     1  LIG1       -0.5033
     12 C           4.5899   -3.6009   -0.8732 C.ar    1  LIG1       -0.0059
     13 O           4.9279   -0.1025   -0.1060 O.2     1  LIG1       -0.4544
     14 C           4.2754    1.1064   -0.0962 C.ar    1  LIG1        0.1462
     15 C           5.0938    2.2378   -0.1657 C.ar    1  LIG1        0.0231
     16 C           4.5109    3.4984   -0.1584 C.ar    1  LIG1        0.1239
     17 O           5.2649    4.6320   -0.2248 O.3     1  LIG1       -0.5065
     18 C           3.1303    3.6457   -0.0827 C.ar    1  LIG1        0.0223
     19 C           2.3161    2.5122   -0.0141 C.ar    1  LIG1        0.1347
     20 O           0.9632    2.6810    0.0580 O.3     1  LIG1       -0.5058
     21 C           2.8842    1.2311   -0.0203 C.ar    1  LIG1        0.1055
     22 H           2.2485   -2.1883    0.0733 H       1  LIG1        0.0693
     23 H           6.4693   -1.7524    1.2887 H       1  LIG1        0.0626
     24 H           7.8356   -3.7935    1.2653 H       1  LIG1        0.0655
     25 H           8.0207   -5.9016    0.4172 H       1  LIG1        0.2923
     26 H           5.6726   -6.4904   -1.4898 H       1  LIG1        0.2923
     27 H           3.6986   -3.5714   -1.4940 H       1  LIG1        0.0662
     28 H           6.1707    2.1150   -0.2253 H       1  LIG1        0.0691
     29 H           6.2037    4.3883   -0.2883 H       1  LIG1        0.2921
     30 H           2.7068    4.6457   -0.0791 H       1  LIG1        0.0691
     31 H           0.7393    3.6251    0.0454 H       1  LIG1        0.2922
@<TRIPOS>BOND
     1     1     2    2
     2     2     3   ar
     3     3     4   ar
     4     4     5    1
     5     5     6   ar
     6     6     7   ar
     7     7     8   ar
     8     8     9    1
     9     8    10   ar
    10    10    11    1
    11    10    12   ar
    12     5    12   ar
    13     4    13   ar
    14    13    14   ar
    15    14    15   ar
    16    15    16   ar
    17    16    17    1
    18    16    18   ar
    19    18    19   ar
    20    19    20    1
    21    19    21   ar
    22     2    21   ar
    23    14    21   ar
    24     3    22    1
    25     6    23    1
    26     7    24    1
    27     9    25    1
    28    11    26    1
    29    12    27    1
    30    15    28    1
    31    17    29    1
    32    18    30    1
    33    20    31    1
