@<TRIPOS>MOLECULE
*****
 33 34 0 0 0
SMALL
GASTEIGER

@<TRIPOS>ATOM
      1 C           0.8786    0.8042    0.8637 C.3     1  LIG1       -0.0394
      2 C           2.3315    0.4247    0.7336 C.ar    1  LIG1       -0.0458
      3 C           3.1806    1.2901    0.0294 C.ar    1  LIG1       -0.0585
      4 C           4.5113    0.9547   -0.1880 C.ar    1  LIG1       -0.0597
      5 C           5.0165   -0.2451    0.3089 C.ar    1  LIG1       -0.0403
      6 C           4.2228   -1.1035    1.0877 C.ar    1  LIG1        0.0345
      7 N           4.7393   -2.3630    1.5295 N.pl3   1  LIG1       -0.3136
      8 C           6.0992   -2.6990    1.8046 C.ar    1  LIG1        0.0454
      9 C           6.9456   -1.7753    2.4414 C.ar    1  LIG1       -0.0397
     10 C           8.2379   -2.1310    2.8354 C.ar    1  LIG1       -0.0600
     11 C           8.6980   -3.4276    2.6313 C.ar    1  LIG1       -0.0609
     12 C           7.8605   -4.3732    2.0451 C.ar    1  LIG1       -0.0460
     13 C           6.5612   -4.0235    1.6389 C.ar    1  LIG1        0.0799
     14 C           5.7378   -5.1266    1.0630 C.2     1  LIG1        0.3386
     15 O           5.9197   -6.2965    1.3425 O.2     1  LIG1       -0.2451
     16 O           4.8177   -4.7207    0.1603 O.3     1  LIG1       -0.4771
     17 C           2.8507   -0.7790    1.2782 C.ar    1  LIG1       -0.0264
     18 C           1.9302   -1.7385    1.9978 C.3     1  LIG1       -0.0377
     19 H           0.6561    1.7424    0.3439 H       1  LIG1        0.0278
     20 H           0.6113    0.9431    1.9158 H       1  LIG1        0.0278
     21 H           0.2447    0.0302    0.4182 H       1  LIG1        0.0278
     22 H           2.8000    2.2242   -0.3800 H       1  LIG1        0.0620
     23 H           5.1515    1.6195   -0.7623 H       1  LIG1        0.0618
     24 H           6.0479   -0.4987    0.0776 H       1  LIG1        0.0636
     25 H           4.2083   -2.6537    2.3542 H       1  LIG1        0.1522
     26 H           6.5975   -0.7671    2.6566 H       1  LIG1        0.0636
     27 H           8.8775   -1.3976    3.3207 H       1  LIG1        0.0618
     28 H           9.6998   -3.7099    2.9464 H       1  LIG1        0.0618
     29 H           8.2176   -5.3937    1.9106 H       1  LIG1        0.0626
     30 H           4.7612   -3.7419    0.0787 H       1  LIG1        0.2954
     31 H           2.3856   -2.1071    2.9217 H       1  LIG1        0.0278
     32 H           1.6914   -2.5823    1.3432 H       1  LIG1        0.0278
     33 H           0.9916   -1.2733    2.3091 H       1  LIG1        0.0278
@<TRIPOS>BOND
     1     1     2    1
     2     2     3   ar
     3     3     4   ar
     4     4     5   ar
     5     5     6   ar
     6     6     7    1
     7     7     8    1
     8     8     9   ar
     9     9    10   ar
    10    10    11   ar
    11    11    12   ar
    12    12    13   ar
    13     8    13   ar
    14    13    14    1
    15    14    15    2
    16    14    16    1
    17     6    17   ar
    18     2    17   ar
    19    17    18    1
    20     1    19    1
    21     1    20    1
    22     1    21    1
    23     3    22    1
    24     4    23    1
    25     5    24    1
    26     7    25    1
    27     9    26    1
    28    10    27    1
    29    11    28    1
    30    12    29    1
    31    16    30    1
    32    18    31    1
    33    18    32    1
    34    18    33    1
