@<TRIPOS>MOLECULE
*****
 49 49 0 0 0
SMALL
GASTEIGER

@<TRIPOS>ATOM
      1 C           8.6977   -1.4832   -3.4704 C.3     1  LIG1       -0.0653
      2 C           7.8216   -1.9954   -2.3369 C.3     1  LIG1       -0.0559
      3 C           6.4134   -1.4007   -2.3536 C.3     1  LIG1       -0.0533
      4 C           6.3778    0.1131   -2.1906 C.3     1  LIG1       -0.0531
      5 C           6.9755    0.5520   -0.8486 C.3     1  LIG1       -0.0531
      6 C           6.9568    2.0577   -0.7020 C.3     1  LIG1       -0.0531
      7 C           5.5678    2.6796   -0.7266 C.3     1  LIG1       -0.0531
      8 C           5.5432    4.1917   -0.5374 C.3     1  LIG1       -0.0531
      9 C           6.2001    5.0213   -1.6455 C.3     1  LIG1       -0.0529
     10 C           7.7247    4.9366   -1.7599 C.3     1  LIG1       -0.0473
     11 C           8.3785    5.7099   -2.9007 C.3     1  LIG1        0.0070
     12 C           8.3212    7.2232   -2.7619 C.3     1  LIG1        0.1520
     13 N           6.9500    7.7484   -2.8436 N.ar    1  LIG1       -0.1876
     14 C           6.3276    8.4707   -1.8273 C.ar    1  LIG1        0.1888
     15 C           5.0063    8.5726   -2.2023 C.ar    1  LIG1        0.0729
     16 N           4.8863    7.9263   -3.4233 N.ar    1  LIG1       -0.2988
     17 C           3.6332    7.6438   -4.1167 C.3     1  LIG1        0.0167
     18 C           6.1005    7.5562   -3.8470 C.ar    1  LIG1        0.2477
     19 H           9.6993   -1.9162   -3.3966 H       1  LIG1        0.0230
     20 H           8.8125   -0.3953   -3.4429 H       1  LIG1        0.0230
     21 H           8.2737   -1.7586   -4.4409 H       1  LIG1        0.0230
     22 H           8.3115   -1.7906   -1.3789 H       1  LIG1        0.0263
     23 H           7.7414   -3.0850   -2.4086 H       1  LIG1        0.0263
     24 H           5.8254   -1.8473   -1.5428 H       1  LIG1        0.0265
     25 H           5.9115   -1.6674   -3.2910 H       1  LIG1        0.0265
     26 H           5.3341    0.4347   -2.2683 H       1  LIG1        0.0265
     27 H           6.9011    0.6036   -3.0224 H       1  LIG1        0.0265
     28 H           8.0308    0.2569   -0.8042 H       1  LIG1        0.0265
     29 H           6.4606    0.0778   -0.0101 H       1  LIG1        0.0265
     30 H           7.5258    2.3665   -1.5663 H       1  LIG1        0.0265
     31 H           7.5048    2.3691    0.1950 H       1  LIG1        0.0265
     32 H           4.9669    2.2230    0.0692 H       1  LIG1        0.0265
     33 H           5.0653    2.4571   -1.6726 H       1  LIG1        0.0265
     34 H           5.9606    4.4677    0.4375 H       1  LIG1        0.0265
     35 H           4.4838    4.4880   -0.5038 H       1  LIG1        0.0265
     36 H           5.9386    6.0416   -1.3806 H       1  LIG1        0.0265
     37 H           5.7243    4.8064   -2.6094 H       1  LIG1        0.0265
     38 H           8.0316    3.9332   -2.0045 H       1  LIG1        0.0267
     39 H           8.1865    5.1815   -0.7982 H       1  LIG1        0.0267
     40 H           7.9624    5.3754   -3.8583 H       1  LIG1        0.0326
     41 H           9.4382    5.4136   -2.9145 H       1  LIG1        0.0326
     42 H           8.8985    7.6842   -3.5687 H       1  LIG1        0.1031
     43 H           8.7675    7.5087   -1.8097 H       1  LIG1        0.1031
     44 H           6.8674    8.7363   -0.9524 H       1  LIG1        0.1392
     45 H           4.1340    8.9689   -1.7243 H       1  LIG1        0.0871
     46 H           3.1512    8.5818   -4.3799 H       1  LIG1        0.0457
     47 H           2.9835    7.0539   -3.4653 H       1  LIG1        0.0457
     48 H           3.8404    7.0647   -5.0249 H       1  LIG1        0.0457
     49 H           6.3332    7.0985   -4.8153 H       1  LIG1        0.1600
@<TRIPOS>BOND
     1     1     2    1
     2     2     3    1
     3     3     4    1
     4     4     5    1
     5     5     6    1
     6     6     7    1
     7     7     8    1
     8     8     9    1
     9     9    10    1
    10    10    11    1
    11    11    12    1
    12    12    13    1
    13    13    14   ar
    14    14    15   ar
    15    15    16   ar
    16    16    17    1
    17    16    18   ar
    18    13    18   ar
    19     1    19    1
    20     1    20    1
    21     1    21    1
    22     2    22    1
    23     2    23    1
    24     3    24    1
    25     3    25    1
    26     4    26    1
    27     4    27    1
    28     5    28    1
    29     5    29    1
    30     6    30    1
    31     6    31    1
    32     7    32    1
    33     7    33    1
    34     8    34    1
    35     8    35    1
    36     9    36    1
    37     9    37    1
    38    10    38    1
    39    10    39    1
    40    11    40    1
    41    11    41    1
    42    12    42    1
    43    12    43    1
    44    14    44    1
    45    15    45    1
    46    17    46    1
    47    17    47    1
    48    17    48    1
    49    18    49    1
