@<TRIPOS>MOLECULE
*****
 55 55 0 0 0
SMALL
GASTEIGER

@<TRIPOS>ATOM
      1 C           1.0138   -0.1586    0.2302 C.3     1  LIG1       -0.0653
      2 C           2.5302   -0.0651    0.1893 C.3     1  LIG1       -0.0559
      3 C           3.0074    0.9634   -0.8364 C.3     1  LIG1       -0.0533
      4 C           4.5342    1.0335   -0.8698 C.3     1  LIG1       -0.0531
      5 C           5.0328    2.0578   -1.8895 C.3     1  LIG1       -0.0531
      6 C           6.5610    2.0934   -1.9163 C.3     1  LIG1       -0.0531
      7 C           7.0830    3.1222   -2.9169 C.3     1  LIG1       -0.0531
      8 C           8.6119    3.1426   -2.9298 C.3     1  LIG1       -0.0531
      9 C           9.1372    4.1852   -3.9122 C.3     1  LIG1       -0.0529
     10 C          10.6664    4.2157   -3.9356 C.3     1  LIG1       -0.0483
     11 C          11.1584    5.2721   -4.9285 C.3     1  LIG1       -0.0125
     12 C          12.6861    5.3263   -4.9693 C.3     1  LIG1       -0.0302
     13 N          13.2665    6.4175   -5.9050 N.4     1  LIG1        0.2444
     14 C          14.7933    6.2745   -5.8314 C.3     1  LIG1       -0.0411
     15 C          12.7877    6.2178   -7.3670 C.3     1  LIG1       -0.0063
     16 C          13.1989    7.3921   -8.2661 C.3     1  LIG1        0.0878
     17 O          12.7125    8.6339   -7.7495 O.3     1  LIG1       -0.3693
     18 C          13.2443    8.9170   -6.4524 C.3     1  LIG1        0.0878
     19 C          12.8476    7.8366   -5.4357 C.3     1  LIG1       -0.0063
     20 H           0.7014   -0.8973    0.9752 H       1  LIG1        0.0230
     21 H           0.6129   -0.4657   -0.7409 H       1  LIG1        0.0230
     22 H           0.5677    0.8042    0.4988 H       1  LIG1        0.0230
     23 H           2.9438   -1.0511   -0.0528 H       1  LIG1        0.0263
     24 H           2.9000    0.2054    1.1853 H       1  LIG1        0.0263
     25 H           2.5981    1.9501   -0.5878 H       1  LIG1        0.0265
     26 H           2.6291    0.6966   -1.8307 H       1  LIG1        0.0265
     27 H           4.9406    0.0449   -1.1164 H       1  LIG1        0.0265
     28 H           4.9108    1.2974    0.1261 H       1  LIG1        0.0265
     29 H           4.6436    3.0514   -1.6362 H       1  LIG1        0.0265
     30 H           4.6522    1.8046   -2.8865 H       1  LIG1        0.0265
     31 H           6.9462    1.1004   -2.1784 H       1  LIG1        0.0265
     32 H           6.9400    2.3329   -0.9153 H       1  LIG1        0.0265
     33 H           6.7024    4.1172   -2.6556 H       1  LIG1        0.0265
     34 H           6.7087    2.8860   -3.9205 H       1  LIG1        0.0265
     35 H           8.9916    2.1516   -3.2062 H       1  LIG1        0.0265
     36 H           8.9867    3.3646   -1.9233 H       1  LIG1        0.0265
     37 H           8.7552    5.1753   -3.6341 H       1  LIG1        0.0265
     38 H           8.7589    3.9654   -4.9182 H       1  LIG1        0.0265
     39 H          11.0543    3.2299   -4.2186 H       1  LIG1        0.0267
     40 H          11.0478    4.4422   -2.9327 H       1  LIG1        0.0267
     41 H          10.7372    6.2355   -4.6289 H       1  LIG1        0.0317
     42 H          10.7532    5.0244   -5.9133 H       1  LIG1        0.0317
     43 H          13.0868    4.3679   -5.3205 H       1  LIG1        0.0815
     44 H          13.0882    5.5281   -3.9693 H       1  LIG1        0.0815
     45 H          15.0626    5.2784   -6.1951 H       1  LIG1        0.0778
     46 H          15.0995    6.3964   -4.7880 H       1  LIG1        0.0778
     47 H          15.2678    7.0378   -6.4493 H       1  LIG1        0.0778
     48 H          11.6960    6.1780   -7.3409 H       1  LIG1        0.0838
     49 H          13.1874    5.2632   -7.7238 H       1  LIG1        0.0838
     50 H          12.7566    7.2557   -9.2581 H       1  LIG1        0.0613
     51 H          14.2843    7.4507   -8.4032 H       1  LIG1        0.0613
     52 H          12.8287    9.8778   -6.1326 H       1  LIG1        0.0613
     53 H          14.3305    9.0436   -6.5212 H       1  LIG1        0.0613
     54 H          11.7588    7.8359   -5.3512 H       1  LIG1        0.0838
     55 H          13.2961    8.0104   -4.4523 H       1  LIG1        0.0838
@<TRIPOS>BOND
     1     1     2    1
     2     2     3    1
     3     3     4    1
     4     4     5    1
     5     5     6    1
     6     6     7    1
     7     7     8    1
     8     8     9    1
     9     9    10    1
    10    10    11    1
    11    11    12    1
    12    12    13    1
    13    13    14    1
    14    13    15    1
    15    15    16    1
    16    16    17    1
    17    17    18    1
    18    18    19    1
    19    13    19    1
    20     1    20    1
    21     1    21    1
    22     1    22    1
    23     2    23    1
    24     2    24    1
    25     3    25    1
    26     3    26    1
    27     4    27    1
    28     4    28    1
    29     5    29    1
    30     5    30    1
    31     6    31    1
    32     6    32    1
    33     7    33    1
    34     7    34    1
    35     8    35    1
    36     8    36    1
    37     9    37    1
    38     9    38    1
    39    10    39    1
    40    10    40    1
    41    11    41    1
    42    11    42    1
    43    12    43    1
    44    12    44    1
    45    14    45    1
    46    14    46    1
    47    14    47    1
    48    15    48    1
    49    15    49    1
    50    16    50    1
    51    16    51    1
    52    18    52    1
    53    18    53    1
    54    19    54    1
    55    19    55    1
