@<TRIPOS>MOLECULE
*****
 28 29 0 0 0
SMALL
GASTEIGER

@<TRIPOS>ATOM
      1 CL          1.2354   -0.9264    1.0547 Cl      1  LIG1       -0.0835
      2 C           2.8782   -0.6400    0.6326 C.ar    1  LIG1        0.0410
      3 C           3.2254    0.5124   -0.0613 C.ar    1  LIG1       -0.0431
      4 C           4.5570    0.7341   -0.4223 C.ar    1  LIG1       -0.0565
      5 C           5.5586   -0.1975   -0.0913 C.ar    1  LIG1       -0.0373
      6 C           7.0039    0.0550   -0.5476 C.3     1  LIG1        0.0405
      7 C           7.8769    0.5126    0.6325 C.ar    1  LIG1       -0.0191
      8 C           8.5073   -0.4285    1.4723 C.ar    1  LIG1       -0.0565
      9 C           9.3253   -0.0226    2.5317 C.ar    1  LIG1       -0.0614
     10 C           9.5214    1.3300    2.7874 C.ar    1  LIG1       -0.0604
     11 C           8.8925    2.2787    1.9874 C.ar    1  LIG1       -0.0431
     12 C           8.0759    1.8793    0.9225 C.ar    1  LIG1        0.0448
     13 CL          7.3489    3.1475   -0.0032 Cl      1  LIG1       -0.0832
     14 C           7.5670   -1.1350   -1.3804 C.3     1  LIG1        0.1186
     15 CL          6.6272   -1.3695   -2.8987 Cl      1  LIG1       -0.1036
     16 CL          9.2809   -0.8954   -1.8573 Cl      1  LIG1       -0.1036
     17 C           5.1905   -1.3431    0.6331 C.ar    1  LIG1       -0.0565
     18 C           3.8559   -1.5681    0.9861 C.ar    1  LIG1       -0.0431
     19 H           2.4660    1.2423   -0.3336 H       1  LIG1        0.0632
     20 H           4.8018    1.6382   -0.9759 H       1  LIG1        0.0621
     21 H           6.9777    0.8828   -1.2664 H       1  LIG1        0.0424
     22 H           8.3850   -1.4972    1.3134 H       1  LIG1        0.0621
     23 H           9.8149   -0.7657    3.1576 H       1  LIG1        0.0618
     24 H          10.1601    1.6467    3.6081 H       1  LIG1        0.0618
     25 H           9.0450    3.3356    2.1953 H       1  LIG1        0.0632
     26 H           7.5192   -2.0840   -0.8395 H       1  LIG1        0.0643
     27 H           5.9283   -2.0845    0.9310 H       1  LIG1        0.0621
     28 H           3.5845   -2.4673    1.5314 H       1  LIG1        0.0632
@<TRIPOS>BOND
     1     1     2    1
     2     2     3   ar
     3     3     4   ar
     4     4     5   ar
     5     5     6    1
     6     6     7    1
     7     7     8   ar
     8     8     9   ar
     9     9    10   ar
    10    10    11   ar
    11    11    12   ar
    12     7    12   ar
    13    12    13    1
    14     6    14    1
    15    14    15    1
    16    14    16    1
    17     5    17   ar
    18    17    18   ar
    19     2    18   ar
    20     3    19    1
    21     4    20    1
    22     6    21    1
    23     8    22    1
    24     9    23    1
    25    10    24    1
    26    11    25    1
    27    14    26    1
    28    17    27    1
    29    18    28    1
