@<TRIPOS>MOLECULE
*****
 57 57 0 0 0
SMALL
GASTEIGER

@<TRIPOS>ATOM
      1 C          16.0013   -2.0949  -13.4650 C.3     1  LIG1       -0.0653
      2 C          15.4249   -1.9049  -12.0632 C.3     1  LIG1       -0.0559
      3 C          15.1232   -0.4454  -11.6944 C.3     1  LIG1       -0.0533
      4 C          14.5311   -0.2517  -10.2726 C.3     1  LIG1       -0.0531
      5 C          13.1958   -0.9738  -10.0240 C.3     1  LIG1       -0.0531
      6 C          12.5987   -0.8397   -8.6037 C.3     1  LIG1       -0.0531
      7 C          12.1067    0.5611   -8.1998 C.3     1  LIG1       -0.0531
      8 C          11.4641    0.5672   -6.7991 C.3     1  LIG1       -0.0531
      9 C          10.9168    1.9429   -6.3790 C.3     1  LIG1       -0.0529
     10 C          11.9237    2.8515   -5.6565 C.3     1  LIG1       -0.0483
     11 C          11.2613    4.0983   -5.0288 C.3     1  LIG1       -0.0125
     12 C          10.0008    3.9608   -4.1266 C.3     1  LIG1       -0.0303
     13 N          10.1868    3.1993   -2.7746 N.4     1  LIG1        0.2412
     14 C           8.8235    3.2069   -2.0479 C.3     1  LIG1       -0.0413
     15 C          10.5510    1.7475   -3.0155 C.3     1  LIG1       -0.0303
     16 C          11.0716    0.9971   -1.8123 C.3     1  LIG1       -0.0123
     17 C          12.1683    1.7834   -1.1045 C.3     1  LIG1       -0.0434
     18 C          11.6591    3.1583   -0.7057 C.3     1  LIG1       -0.0123
     19 C          11.2170    3.9593   -1.9242 C.3     1  LIG1       -0.0303
     20 H          16.0222   -3.1641  -13.7102 H       1  LIG1        0.0230
     21 H          17.0295   -1.7254  -13.5330 H       1  LIG1        0.0230
     22 H          15.3999   -1.5940  -14.2303 H       1  LIG1        0.0230
     23 H          16.1345   -2.3228  -11.3405 H       1  LIG1        0.0263
     24 H          14.5076   -2.4972  -12.0043 H       1  LIG1        0.0263
     25 H          14.4427   -0.0078  -12.4350 H       1  LIG1        0.0265
     26 H          16.0570    0.1302  -11.7546 H       1  LIG1        0.0265
     27 H          14.3913    0.8241  -10.1138 H       1  LIG1        0.0265
     28 H          15.2703   -0.5879   -9.5361 H       1  LIG1        0.0265
     29 H          13.3495   -2.0467  -10.1896 H       1  LIG1        0.0265
     30 H          12.4567   -0.6447  -10.7633 H       1  LIG1        0.0265
     31 H          13.3238   -1.2035   -7.8663 H       1  LIG1        0.0265
     32 H          11.7410   -1.5256   -8.5530 H       1  LIG1        0.0265
     33 H          11.3572    0.8971   -8.9267 H       1  LIG1        0.0265
     34 H          12.9350    1.2739   -8.2195 H       1  LIG1        0.0265
     35 H          12.1650    0.1889   -6.0450 H       1  LIG1        0.0265
     36 H          10.6182   -0.1350   -6.8066 H       1  LIG1        0.0265
     37 H          10.0557    1.7525   -5.7305 H       1  LIG1        0.0265
     38 H          10.5217    2.4810   -7.2471 H       1  LIG1        0.0265
     39 H          12.6917    3.1780   -6.3640 H       1  LIG1        0.0267
     40 H          12.5205    2.3134   -4.9121 H       1  LIG1        0.0267
     41 H          10.9665    4.7419   -5.8684 H       1  LIG1        0.0317
     42 H          12.0320    4.6762   -4.5067 H       1  LIG1        0.0317
     43 H           9.1768    3.4783   -4.6633 H       1  LIG1        0.0815
     44 H           9.6650    4.9577   -3.8529 H       1  LIG1        0.0815
     45 H           8.0792    2.7437   -2.7041 H       1  LIG1        0.0778
     46 H           8.5469    4.2399   -1.8234 H       1  LIG1        0.0778
     47 H           8.9107    2.6284   -1.1251 H       1  LIG1        0.0778
     48 H          11.3693    1.7221   -3.7040 H       1  LIG1        0.0815
     49 H           9.6977    1.2425   -3.4924 H       1  LIG1        0.0815
     50 H          11.4896    0.0440   -2.1555 H       1  LIG1        0.0317
     51 H          10.2528    0.7575   -1.1070 H       1  LIG1        0.0317
     52 H          13.0342    1.8848   -1.7623 H       1  LIG1        0.0269
     53 H          12.5061    1.2405   -0.2209 H       1  LIG1        0.0269
     54 H          12.4608    3.7059   -0.1985 H       1  LIG1        0.0317
     55 H          10.8390    3.0648    0.0171 H       1  LIG1        0.0317
     56 H          12.0909    4.1445   -2.5470 H       1  LIG1        0.0815
     57 H          10.7724    4.9163   -1.6341 H       1  LIG1        0.0815
@<TRIPOS>BOND
     1     1     2    1
     2     2     3    1
     3     3     4    1
     4     4     5    1
     5     5     6    1
     6     6     7    1
     7     7     8    1
     8     8     9    1
     9     9    10    1
    10    10    11    1
    11    11    12    1
    12    12    13    1
    13    13    14    1
    14    13    15    1
    15    15    16    1
    16    16    17    1
    17    17    18    1
    18    18    19    1
    19    13    19    1
    20     1    20    1
    21     1    21    1
    22     1    22    1
    23     2    23    1
    24     2    24    1
    25     3    25    1
    26     3    26    1
    27     4    27    1
    28     4    28    1
    29     5    29    1
    30     5    30    1
    31     6    31    1
    32     6    32    1
    33     7    33    1
    34     7    34    1
    35     8    35    1
    36     8    36    1
    37     9    37    1
    38     9    38    1
    39    10    39    1
    40    10    40    1
    41    11    41    1
    42    11    42    1
    43    12    43    1
    44    12    44    1
    45    14    45    1
    46    14    46    1
    47    14    47    1
    48    15    48    1
    49    15    49    1
    50    16    50    1
    51    16    51    1
    52    17    52    1
    53    17    53    1
    54    18    54    1
    55    18    55    1
    56    19    56    1
    57    19    57    1
