@<TRIPOS>MOLECULE
*****
 55 58 0 0 0
SMALL
GASTEIGER

@<TRIPOS>ATOM
      1 C           0.1599   -0.1652    1.5103 C.3     1  LIG1       -0.0442
      2 C          -0.1795   -1.5553    1.9470 C.3     1  LIG1       -0.0442
      3 C           1.2273   -1.2538    1.4742 C.3     1  LIG1        0.0020
      4 C           2.4295   -1.1503    2.4510 C.ar    1  LIG1        0.0527
      5 N           2.6172    0.1061    2.9051 N.ar    1  LIG1       -0.2507
      6 C           3.6637    0.4048    3.6518 C.ar    1  LIG1        0.0719
      7 C           3.7187    1.7285    4.0594 C.ar    1  LIG1       -0.0357
      8 C           4.7714    2.2201    4.8179 C.ar    1  LIG1       -0.0597
      9 C           5.8164    1.3730    5.1287 C.ar    1  LIG1       -0.0611
     10 C           5.7760    0.0406    4.7025 C.ar    1  LIG1       -0.0520
     11 C           4.6643   -0.5214    4.0059 C.ar    1  LIG1        0.0087
     12 C           4.4759   -1.9174    3.6274 C.ar    1  LIG1        0.0001
     13 C           3.3100   -2.2263    2.8197 C.ar    1  LIG1        0.0046
     14 C           2.8801   -3.5479    2.2677 C.2     1  LIG1       -0.0538
     15 C           3.2588   -4.8208    2.4499 C.2     1  LIG1       -0.0552
     16 C           2.7193   -6.0283    1.7511 C.3     1  LIG1        0.0760
     17 C           1.5634   -5.7867    0.7763 C.3     1  LIG1        0.0034
     18 C           0.9719   -7.0675    0.1783 C.3     1  LIG1        0.0679
     19 C           1.9079   -7.9278   -0.6717 C.3     1  LIG1        0.0708
     20 C           2.4012   -7.2756   -1.9247 C.2     1  LIG1        0.3072
     21 O           2.5409   -6.0644   -2.1555 O.2     1  LIG1       -0.2509
     22 O           2.7892   -8.1723   -2.8470 O.3     1  LIG1       -0.4806
     23 O           0.4448   -7.8682    1.2487 O.3     1  LIG1       -0.3912
     24 O           3.8100   -6.6224    1.0548 O.3     1  LIG1       -0.3877
     25 C           5.4845   -2.9506    4.1328 C.ar    1  LIG1       -0.0165
     26 C           5.9812   -3.9930    3.3309 C.ar    1  LIG1       -0.0513
     27 C           6.7395   -5.0552    3.8571 C.ar    1  LIG1       -0.0259
     28 C           7.2602   -4.9537    5.1322 C.ar    1  LIG1        0.1234
     29 C           6.9509   -3.8580    5.9141 C.ar    1  LIG1       -0.0259
     30 C           6.0069   -2.9241    5.4509 C.ar    1  LIG1       -0.0513
     31 F           8.0826   -5.9033    5.5966 F       1  LIG1       -0.2055
     32 H           0.2204    0.6080    2.2693 H       1  LIG1        0.0272
     33 H          -0.2420    0.1926    0.5687 H       1  LIG1        0.0272
     34 H          -0.8511   -2.1042    1.2941 H       1  LIG1        0.0272
     35 H          -0.3501   -1.7324    3.0016 H       1  LIG1        0.0272
     36 H           1.4839   -1.5885    0.4696 H       1  LIG1        0.0364
     37 H           2.9107    2.3995    3.7721 H       1  LIG1        0.0639
     38 H           4.7787    3.2592    5.1328 H       1  LIG1        0.0618
     39 H           6.6680    1.7406    5.6944 H       1  LIG1        0.0618
     40 H           6.6547   -0.5582    4.9225 H       1  LIG1        0.0624
     41 H           2.0540   -3.4468    1.5719 H       1  LIG1        0.0622
     42 H           4.0143   -5.1024    3.1602 H       1  LIG1        0.0598
     43 H           2.4059   -6.7216    2.5369 H       1  LIG1        0.0638
     44 H           1.8846   -5.1212   -0.0326 H       1  LIG1        0.0318
     45 H           0.7584   -5.2672    1.3150 H       1  LIG1        0.0318
     46 H           0.1060   -6.7795   -0.4296 H       1  LIG1        0.0599
     47 H           1.3666   -8.8417   -0.9498 H       1  LIG1        0.0403
     48 H           2.7717   -8.2778   -0.1011 H       1  LIG1        0.0403
     49 H           3.1957   -7.6307   -3.5560 H       1  LIG1        0.2951
     50 H           1.1865   -8.1729    1.7997 H       1  LIG1        0.2098
     51 H           4.4517   -6.9407    1.7107 H       1  LIG1        0.2102
     52 H           5.7050   -4.0493    2.2800 H       1  LIG1        0.0624
     53 H           6.9283   -5.9501    3.2719 H       1  LIG1        0.0646
     54 H           7.4263   -3.7410    6.8833 H       1  LIG1        0.0646
     55 H           5.7167   -2.1428    6.1512 H       1  LIG1        0.0624
@<TRIPOS>BOND
     1     1     2    1
     2     2     3    1
     3     1     3    1
     4     3     4    1
     5     4     5   ar
     6     5     6   ar
     7     6     7   ar
     8     7     8   ar
     9     8     9   ar
    10     9    10   ar
    11    10    11   ar
    12     6    11   ar
    13    11    12   ar
    14    12    13   ar
    15     4    13   ar
    16    13    14    1
    17    14    15    2
    18    15    16    1
    19    16    17    1
    20    17    18    1
    21    18    19    1
    22    19    20    1
    23    20    21    2
    24    20    22    1
    25    18    23    1
    26    16    24    1
    27    12    25    1
    28    25    26   ar
    29    26    27   ar
    30    27    28   ar
    31    28    29   ar
    32    29    30   ar
    33    25    30   ar
    34    28    31    1
    35     1    32    1
    36     1    33    1
    37     2    34    1
    38     2    35    1
    39     3    36    1
    40     7    37    1
    41     8    38    1
    42     9    39    1
    43    10    40    1
    44    14    41    1
    45    15    42    1
    46    16    43    1
    47    17    44    1
    48    17    45    1
    49    18    46    1
    50    19    47    1
    51    19    48    1
    52    22    49    1
    53    23    50    1
    54    24    51    1
    55    26    52    1
    56    27    53    1
    57    29    54    1
    58    30    55    1
