WARNING: damped steplength 0.00256246 to 0.00210934
@<TRIPOS>MOLECULE
*****
 127 126 0 0 0
SMALL
GASTEIGER

@<TRIPOS>ATOM
      1 C          34.1291   -5.7395   -6.8884 C.3     1  LIG1       -0.0653
      2 C          35.1414   -5.7277   -8.0267 C.3     1  LIG1       -0.0559
      3 C          35.4486   -7.0745   -8.7007 C.3     1  LIG1       -0.0533
      4 C          34.2945   -7.8537   -9.3920 C.3     1  LIG1       -0.0531
      5 C          33.4062   -7.0813  -10.3897 C.3     1  LIG1       -0.0531
      6 C          32.3442   -7.9141  -11.1957 C.3     1  LIG1       -0.0531
      7 C          31.1502   -8.5421  -10.4155 C.3     1  LIG1       -0.0531
      8 C          30.0712   -9.2564  -11.3127 C.3     1  LIG1       -0.0531
      9 C          28.8993   -9.9204  -10.5001 C.3     1  LIG1       -0.0531
     10 C          27.8225  -10.6598  -11.3622 C.3     1  LIG1       -0.0531
     11 C          26.6485  -11.3382  -10.5973 C.3     1  LIG1       -0.0531
     12 C          25.6462  -12.1421  -11.5125 C.3     1  LIG1       -0.0530
     13 C          24.8851  -11.3017  -12.5375 C.3     1  LIG1       -0.0526
     14 C          23.7959  -11.9363  -13.4663 C.3     1  LIG1       -0.0448
     15 C          23.0456  -11.0936  -14.5704 C.3     1  LIG1        0.0240
     16 C          21.8483  -10.0583  -14.3453 C.2     1  LIG1        0.2134
     17 O          21.9280   -9.0150  -14.8401 O.2     1  LIG1       -0.2758
     18 N          20.8509  -10.4435  -13.3385 N.am    1  LIG1       -0.3074
     19 C          20.0047   -9.3780  -12.4982 C.3     1  LIG1        0.0762
     20 C          18.9470   -8.6558  -13.3241 C.3     1  LIG1        0.0759
     21 O          18.3580   -7.6261  -12.5529 O.3     1  LIG1       -0.3255
     22 P          18.8580   -6.0687  -12.4252 P.3     1  LIG1        0.2128
     23 O          18.6714   -5.3521  -13.7218 O.2     1  LIG1       -0.5172
     24 O          18.2547   -5.5894  -11.1193 O.co2   1  LIG1       -0.4373
     25 O          20.4863   -6.1493  -12.1423 O.3     1  LIG1       -0.3221
     26 C          20.8710   -6.7807  -10.9419 C.3     1  LIG1        0.0947
     27 C          22.3726   -7.1943  -10.7186 C.3     1  LIG1       -0.0064
     28 N          23.2104   -7.8574  -11.8135 N.4     1  LIG1        0.2385
     29 C          22.8318   -9.2209  -12.0187 C.3     1  LIG1       -0.0417
     30 C          23.0159   -7.0316  -13.1187 C.3     1  LIG1       -0.0417
     31 C          24.6558   -8.0543  -11.4868 C.3     1  LIG1       -0.0417
     32 C          19.8129   -9.6063  -10.7835 C.3     1  LIG1        0.0938
     33 C          19.3195  -10.8857  -10.2425 C.2     1  LIG1       -0.0580
     34 C          19.5657  -11.3431   -8.9936 C.2     1  LIG1       -0.0855
     35 C          18.9584  -12.5919   -8.4341 C.3     1  LIG1       -0.0347
     36 C          17.6955  -12.2935   -7.6037 C.3     1  LIG1       -0.0496
     37 C          17.0306  -13.5426   -7.0083 C.3     1  LIG1       -0.0528
     38 C          15.7511  -13.2546   -6.1501 C.3     1  LIG1       -0.0530
     39 C          14.6389  -12.4119   -6.8276 C.3     1  LIG1       -0.0531
     40 C          13.2282  -12.3698   -6.2008 C.3     1  LIG1       -0.0531
     41 C          12.4150  -13.6193   -5.8050 C.3     1  LIG1       -0.0531
     42 C          11.9031  -14.5669   -6.9107 C.3     1  LIG1       -0.0531
     43 C          12.9178  -15.4390   -7.6621 C.3     1  LIG1       -0.0531
     44 C          13.9284  -14.7713   -8.5831 C.3     1  LIG1       -0.0531
     45 C          13.4128  -13.7478   -9.6223 C.3     1  LIG1       -0.0533
     46 C          12.6268  -14.4657  -10.7097 C.3     1  LIG1       -0.0559
     47 C          12.1456  -13.5772  -11.8451 C.3     1  LIG1       -0.0653
     48 O          21.0338   -9.3895  -10.0181 O.3     1  LIG1       -0.3859
     49 H          33.9306   -4.7086   -6.5663 H       1  LIG1        0.0230
     50 H          34.5077   -6.2769   -6.0122 H       1  LIG1        0.0230
     51 H          33.1747   -6.1776   -7.1882 H       1  LIG1        0.0230
     52 H          36.0825   -5.3338   -7.6155 H       1  LIG1        0.0263
     53 H          34.8171   -5.0079   -8.7841 H       1  LIG1        0.0263
     54 H          35.9045   -7.7369   -7.9500 H       1  LIG1        0.0265
     55 H          36.2471   -6.9007   -9.4375 H       1  LIG1        0.0265
     56 H          33.6627   -8.2810   -8.6100 H       1  LIG1        0.0265
     57 H          34.7626   -8.6961   -9.9204 H       1  LIG1        0.0265
     58 H          34.0661   -6.6002  -11.1277 H       1  LIG1        0.0265
     59 H          32.8953   -6.2705   -9.8613 H       1  LIG1        0.0265
     60 H          32.8644   -8.7060  -11.7479 H       1  LIG1        0.0265
     61 H          31.9279   -7.2359  -11.9539 H       1  LIG1        0.0265
     62 H          30.6572   -7.7574   -9.8300 H       1  LIG1        0.0265
     63 H          31.5499   -9.2793   -9.7127 H       1  LIG1        0.0265
     64 H          30.5716  -10.0285  -11.9101 H       1  LIG1        0.0265
     65 H          29.6516   -8.5334  -12.0255 H       1  LIG1        0.0265
     66 H          28.4116   -9.1452   -9.8970 H       1  LIG1        0.0265
     67 H          29.3359  -10.6466   -9.8059 H       1  LIG1        0.0265
     68 H          28.3211  -11.4552  -11.9234 H       1  LIG1        0.0265
     69 H          27.4083   -9.9491  -12.0836 H       1  LIG1        0.0265
     70 H          26.1083  -10.5988   -9.9846 H       1  LIG1        0.0265
     71 H          27.0567  -12.0640   -9.8821 H       1  LIG1        0.0265
     72 H          24.8826  -12.5683  -10.8404 H       1  LIG1        0.0265
     73 H          26.1523  -12.9630  -12.0122 H       1  LIG1        0.0265
     74 H          25.5363  -10.6088  -13.0827 H       1  LIG1        0.0265
     75 H          24.3178  -10.7943  -11.7845 H       1  LIG1        0.0265
     76 H          23.0315  -12.3601  -12.8165 H       1  LIG1        0.0270
     77 H          24.3105  -12.7345  -14.0049 H       1  LIG1        0.0270
     78 H          22.6208  -11.7756  -15.3066 H       1  LIG1        0.0358
     79 H          23.8241  -10.5043  -15.0971 H       1  LIG1        0.0358
     80 H          21.1145  -11.2334  -12.7442 H       1  LIG1        0.1492
     81 H          20.5876   -8.4763  -12.5315 H       1  LIG1        0.0550
     82 H          18.2275   -9.4175  -13.6176 H       1  LIG1        0.0584
     83 H          19.4071   -8.2275  -14.2268 H       1  LIG1        0.0584
     84 H          20.4639   -6.3256  -10.0344 H       1  LIG1        0.0618
     85 H          20.2236   -7.6032  -10.9794 H       1  LIG1        0.0618
     86 H          22.4941   -7.8508   -9.8519 H       1  LIG1        0.0838
     87 H          22.9172   -6.2895  -10.5027 H       1  LIG1        0.0838
     88 H          23.4582   -9.6335  -12.7807 H       1  LIG1        0.0778
     89 H          22.0121   -9.0347  -12.5711 H       1  LIG1        0.0778
     90 H          22.6154   -9.9289  -11.2061 H       1  LIG1        0.0778
     91 H          22.0059   -7.1503  -13.5240 H       1  LIG1        0.0778
     92 H          23.7432   -7.3609  -13.8664 H       1  LIG1        0.0778
     93 H          23.1614   -5.9932  -12.8407 H       1  LIG1        0.0778
     94 H          24.8375   -7.7164  -10.4804 H       1  LIG1        0.0778
     95 H          25.2568   -7.7084  -12.3237 H       1  LIG1        0.0778
     96 H          24.9044   -9.1135  -11.4205 H       1  LIG1        0.0778
     97 H          19.1050   -8.8555  -10.3890 H       1  LIG1        0.0657
     98 H          18.6247  -11.3676  -10.9096 H       1  LIG1        0.0595
     99 H          20.2232  -10.8140   -8.2954 H       1  LIG1        0.0570
    100 H          19.7228  -13.0954   -7.8295 H       1  LIG1        0.0307
    101 H          18.7245  -13.2507   -9.2747 H       1  LIG1        0.0307
    102 H          16.9736  -11.7936   -8.2576 H       1  LIG1        0.0268
    103 H          17.9379  -11.5997   -6.7899 H       1  LIG1        0.0268
    104 H          16.8034  -14.2455   -7.8206 H       1  LIG1        0.0265
    105 H          17.7574  -14.0660   -6.3703 H       1  LIG1        0.0265
    106 H          16.0608  -12.7050   -5.2573 H       1  LIG1        0.0265
    107 H          15.3735  -14.2246   -5.7938 H       1  LIG1        0.0265
    108 H          14.5212  -12.6152   -7.8817 H       1  LIG1        0.0265
    109 H          15.0065  -11.3873   -6.9112 H       1  LIG1        0.0265
    110 H          12.5904  -11.8137   -6.9019 H       1  LIG1        0.0265
    111 H          13.3096  -11.7363   -5.3100 H       1  LIG1        0.0265
    112 H          11.4961  -13.2214   -5.3313 H       1  LIG1        0.0265
    113 H          12.9041  -14.1802   -5.0011 H       1  LIG1        0.0265
    114 H          11.2666  -14.0155   -7.6112 H       1  LIG1        0.0265
    115 H          11.2200  -15.2765   -6.4121 H       1  LIG1        0.0265
    116 H          12.3818  -16.1806   -8.2609 H       1  LIG1        0.0265
    117 H          13.4837  -16.0000   -6.9065 H       1  LIG1        0.0265
    118 H          14.5687  -15.4975   -9.0928 H       1  LIG1        0.0265
    119 H          14.6547  -14.3815   -7.9000 H       1  LIG1        0.0265
    120 H          14.2734  -13.2286  -10.0721 H       1  LIG1        0.0265
    121 H          12.7909  -12.9591   -9.1775 H       1  LIG1        0.0265
    122 H          11.7541  -14.9389  -10.2512 H       1  LIG1        0.0263
    123 H          13.2574  -15.2574  -11.1273 H       1  LIG1        0.0263
    124 H          11.6474  -14.2014  -12.5955 H       1  LIG1        0.0230
    125 H          12.9697  -13.0545  -12.3406 H       1  LIG1        0.0230
    126 H          11.4201  -12.8355  -11.4970 H       1  LIG1        0.0230
    127 H          20.7989   -9.0275   -9.1339 H       1  LIG1        0.2103
@<TRIPOS>BOND
     1     1     2    1
     2     2     3    1
     3     3     4    1
     4     4     5    1
     5     5     6    1
     6     6     7    1
     7     7     8    1
     8     8     9    1
     9     9    10    1
    10    10    11    1
    11    11    12    1
    12    12    13    1
    13    13    14    1
    14    14    15    1
    15    15    16    1
    16    16    17    2
    17    16    18   am
    18    18    19    1
    19    19    20    1
    20    20    21    1
    21    21    22    1
    22    22    23    2
    23    22    24    1
    24    22    25    1
    25    25    26    1
    26    26    27    1
    27    27    28    1
    28    28    29    1
    29    28    30    1
    30    28    31    1
    31    19    32    1
    32    32    33    1
    33    33    34    2
    34    34    35    1
    35    35    36    1
    36    36    37    1
    37    37    38    1
    38    38    39    1
    39    39    40    1
    40    40    41    1
    41    41    42    1
    42    42    43    1
    43    43    44    1
    44    44    45    1
    45    45    46    1
    46    46    47    1
    47    32    48    1
    48     1    49    1
    49     1    50    1
    50     1    51    1
    51     2    52    1
    52     2    53    1
    53     3    54    1
    54     3    55    1
    55     4    56    1
    56     4    57    1
    57     5    58    1
    58     5    59    1
    59     6    60    1
    60     6    61    1
    61     7    62    1
    62     7    63    1
    63     8    64    1
    64     8    65    1
    65     9    66    1
    66     9    67    1
    67    10    68    1
    68    10    69    1
    69    11    70    1
    70    11    71    1
    71    12    72    1
    72    12    73    1
    73    13    74    1
    74    13    75    1
    75    14    76    1
    76    14    77    1
    77    15    78    1
    78    15    79    1
    79    18    80    1
    80    19    81    1
    81    20    82    1
    82    20    83    1
    83    26    84    1
    84    26    85    1
    85    27    86    1
    86    27    87    1
    87    29    88    1
    88    29    89    1
    89    29    90    1
    90    30    91    1
    91    30    92    1
    92    30    93    1
    93    31    94    1
    94    31    95    1
    95    31    96    1
    96    32    97    1
    97    33    98    1
    98    34    99    1
    99    35   100    1
   100    35   101    1
   101    36   102    1
   102    36   103    1
   103    37   104    1
   104    37   105    1
   105    38   106    1
   106    38   107    1
   107    39   108    1
   108    39   109    1
   109    40   110    1
   110    40   111    1
   111    41   112    1
   112    41   113    1
   113    42   114    1
   114    42   115    1
   115    43   116    1
   116    43   117    1
   117    44   118    1
   118    44   119    1
   119    45   120    1
   120    45   121    1
   121    46   122    1
   122    46   123    1
   123    47   124    1
   124    47   125    1
   125    47   126    1
   126    48   127    1
