@<TRIPOS>MOLECULE
*****
 54 54 0 0 0
SMALL
GASTEIGER

@<TRIPOS>ATOM
      1 C          12.9029    7.3121   -0.7747 C.3     1  LIG1       -0.0653
      2 C          11.5246    7.7683   -0.3175 C.3     1  LIG1       -0.0559
      3 C          11.2322    7.3369    1.1204 C.3     1  LIG1       -0.0533
      4 C           9.8369    7.7888    1.5736 C.3     1  LIG1       -0.0531
      5 C           9.4883    7.3880    3.0158 C.3     1  LIG1       -0.0531
      6 C           9.5002    5.8731    3.2150 C.3     1  LIG1       -0.0531
      7 C           9.1765    5.4399    4.6446 C.3     1  LIG1       -0.0531
      8 C           9.1798    3.9106    4.7940 C.3     1  LIG1       -0.0531
      9 C          10.5386    3.2625    4.4951 C.3     1  LIG1       -0.0529
     10 C          10.5249    1.7353    4.6465 C.3     1  LIG1       -0.0483
     11 C           9.6534    0.9606    3.6376 C.3     1  LIG1       -0.0125
     12 C          10.0750    1.1578    2.1744 C.3     1  LIG1       -0.0303
     13 N           9.2489    0.3640    1.1296 N.4     1  LIG1        0.2412
     14 C           9.7217    0.8246   -0.2612 C.3     1  LIG1       -0.0413
     15 C           7.7271    0.6027    1.2311 C.3     1  LIG1       -0.0302
     16 C           7.0923   -0.7728    1.3222 C.3     1  LIG1       -0.0077
     17 C           8.1126   -1.7277    0.7408 C.3     1  LIG1       -0.0077
     18 C           9.4411   -1.1599    1.2107 C.3     1  LIG1       -0.0302
     19 H          13.1189    7.7066   -1.7728 H       1  LIG1        0.0230
     20 H          12.9590    6.2197   -0.8252 H       1  LIG1        0.0230
     21 H          13.6841    7.6647   -0.0939 H       1  LIG1        0.0230
     22 H          10.7701    7.3456   -0.9915 H       1  LIG1        0.0263
     23 H          11.4607    8.8587   -0.3981 H       1  LIG1        0.0263
     24 H          11.9885    7.7549    1.7957 H       1  LIG1        0.0265
     25 H          11.3179    6.2466    1.1716 H       1  LIG1        0.0265
     26 H           9.0811    7.3761    0.8938 H       1  LIG1        0.0265
     27 H           9.7708    8.8807    1.4935 H       1  LIG1        0.0265
     28 H           8.4918    7.7791    3.2568 H       1  LIG1        0.0265
     29 H          10.1927    7.8628    3.7090 H       1  LIG1        0.0265
     30 H          10.4951    5.5023    2.9627 H       1  LIG1        0.0265
     31 H           8.7889    5.4077    2.5221 H       1  LIG1        0.0265
     32 H           8.1852    5.8165    4.9276 H       1  LIG1        0.0265
     33 H           9.8961    5.8811    5.3448 H       1  LIG1        0.0265
     34 H           8.4097    3.4936    4.1360 H       1  LIG1        0.0265
     35 H           8.8886    3.6631    5.8220 H       1  LIG1        0.0265
     36 H          11.2788    3.6757    5.1929 H       1  LIG1        0.0265
     37 H          10.8918    3.5160    3.4926 H       1  LIG1        0.0265
     38 H          10.1787    1.4943    5.6592 H       1  LIG1        0.0267
     39 H          11.5580    1.3721    4.5786 H       1  LIG1        0.0267
     40 H           8.6133    1.2601    3.7925 H       1  LIG1        0.0317
     41 H           9.7085   -0.0992    3.9078 H       1  LIG1        0.0317
     42 H          11.1210    0.8538    2.0329 H       1  LIG1        0.0815
     43 H           9.9740    2.2102    1.8931 H       1  LIG1        0.0815
     44 H           9.5018    1.8892   -0.3619 H       1  LIG1        0.0778
     45 H           9.1809    0.2501   -1.0223 H       1  LIG1        0.0778
     46 H          10.7971    0.6431   -0.3365 H       1  LIG1        0.0778
     47 H           7.3997    1.1341    0.3305 H       1  LIG1        0.0815
     48 H           7.4931    1.2249    2.0947 H       1  LIG1        0.0815
     49 H           6.1401   -0.8166    0.7867 H       1  LIG1        0.0319
     50 H           6.8907   -1.0265    2.3724 H       1  LIG1        0.0319
     51 H           8.0507   -1.7360   -0.3466 H       1  LIG1        0.0319
     52 H           7.9592   -2.7588    1.0935 H       1  LIG1        0.0319
     53 H          10.2793   -1.4609    0.5626 H       1  LIG1        0.0815
     54 H           9.6563   -1.4392    2.2369 H       1  LIG1        0.0815
@<TRIPOS>BOND
     1     1     2    1
     2     2     3    1
     3     3     4    1
     4     4     5    1
     5     5     6    1
     6     6     7    1
     7     7     8    1
     8     8     9    1
     9     9    10    1
    10    10    11    1
    11    11    12    1
    12    12    13    1
    13    13    14    1
    14    13    15    1
    15    15    16    1
    16    16    17    1
    17    17    18    1
    18    13    18    1
    19     1    19    1
    20     1    20    1
    21     1    21    1
    22     2    22    1
    23     2    23    1
    24     3    24    1
    25     3    25    1
    26     4    26    1
    27     4    27    1
    28     5    28    1
    29     5    29    1
    30     6    30    1
    31     6    31    1
    32     7    32    1
    33     7    33    1
    34     8    34    1
    35     8    35    1
    36     9    36    1
    37     9    37    1
    38    10    38    1
    39    10    39    1
    40    11    40    1
    41    11    41    1
    42    12    42    1
    43    12    43    1
    44    14    44    1
    45    14    45    1
    46    14    46    1
    47    15    47    1
    48    15    48    1
    49    16    49    1
    50    16    50    1
    51    17    51    1
    52    17    52    1
    53    18    53    1
    54    18    54    1
