@<TRIPOS>MOLECULE
*****
 41 44 0 0 0
SMALL
GASTEIGER

@<TRIPOS>ATOM
      1 C           1.5211   -0.4146    2.8219 C.3     1  LIG1       -0.0527
      2 C           0.4795   -1.2860    2.1452 C.3     1  LIG1       -0.0527
      3 C           0.8062   -1.1466    0.6662 C.3     1  LIG1       -0.0482
      4 C           1.2873    0.3068    0.4962 C.3     1  LIG1       -0.0176
      5 C           1.6420    0.7997    1.9111 C.3     1  LIG1       -0.0482
      6 C           2.3732    0.4890   -0.6017 C.3     1  LIG1        0.0682
      7 H           1.9052    0.1794   -1.5479 H       1  LIG1        0.0557
      8 C           2.8757    1.9306   -0.7762 C.3     1  LIG1        0.0574
      9 C           1.7893    2.8370   -1.1687 C.1     1  LIG1        0.0646
     10 N           0.9245    3.5370   -1.4821 N.1     1  LIG1       -0.1965
     11 N           3.5318   -0.3933   -0.4516 N.ar    1  LIG1       -0.2665
     12 C           3.9723   -1.3127   -1.3605 C.ar    1  LIG1        0.0350
     13 C           5.1326   -1.8527   -0.8434 C.ar    1  LIG1        0.0385
     14 C           5.3088   -1.1685    0.3777 C.ar    1  LIG1        0.0586
     15 N           4.3436   -0.2754    0.6146 N.ar    1  LIG1       -0.1787
     16 C           5.9211   -2.8646   -1.5057 C.ar    1  LIG1        0.0863
     17 C           6.6939   -3.7899   -0.7965 C.ar    1  LIG1        0.0447
     18 C           6.9807   -4.1141    0.5618 C.ar    1  LIG1       -0.0330
     19 C           7.8387   -5.1942    0.5672 C.ar    1  LIG1        0.0042
     20 N           8.0820   -5.5406   -0.7365 N.ar    1  LIG1       -0.3457
     21 C           7.3947   -4.7037   -1.5719 C.ar    1  LIG1        0.1419
     22 N           7.4148   -4.7853   -2.9103 N.ar    1  LIG1       -0.2179
     23 C           6.6350   -3.8488   -3.4755 C.ar    1  LIG1        0.1189
     24 N           5.8897   -2.9111   -2.8622 N.ar    1  LIG1       -0.2346
     25 H           2.4807   -0.9417    2.8731 H       1  LIG1        0.0265
     26 H           1.2323   -0.1385    3.8403 H       1  LIG1        0.0265
     27 H          -0.5285   -0.9088    2.3515 H       1  LIG1        0.0265
     28 H           0.5315   -2.3260    2.4811 H       1  LIG1        0.0265
     29 H          -0.0698   -1.3548    0.0426 H       1  LIG1        0.0269
     30 H           1.5773   -1.8741    0.3956 H       1  LIG1        0.0269
     31 H           0.4121    0.8903    0.1756 H       1  LIG1        0.0322
     32 H           0.9086    1.5567    2.2185 H       1  LIG1        0.0269
     33 H           2.6263    1.2645    1.9988 H       1  LIG1        0.0269
     34 H           3.6431    1.9565   -1.5605 H       1  LIG1        0.0439
     35 H           3.3600    2.3052    0.1303 H       1  LIG1        0.0439
     36 H           3.4433   -1.5140   -2.2826 H       1  LIG1        0.0833
     37 H           6.1080   -1.2655    1.1007 H       1  LIG1        0.0854
     38 H           6.5949   -3.6254    1.4469 H       1  LIG1        0.0640
     39 H           8.2873   -5.7475    1.3818 H       1  LIG1        0.0807
     40 H           8.6670   -6.2986   -1.0577 H       1  LIG1        0.1668
     41 H           6.6054   -3.8457   -4.5613 H       1  LIG1        0.1048
@<TRIPOS>BOND
     1     1     2    1
     2     2     3    1
     3     3     4    1
     4     4     5    1
     5     1     5    1
     6     4     6    1
     7     6     7    1
     8     6     8    1
     9     8     9    1
    10     9    10    3
    11     6    11    1
    12    11    12   ar
    13    12    13   ar
    14    13    14   ar
    15    14    15   ar
    16    11    15   ar
    17    13    16    1
    18    16    17   ar
    19    17    18   ar
    20    18    19   ar
    21    19    20   ar
    22    20    21   ar
    23    17    21   ar
    24    21    22   ar
    25    22    23   ar
    26    23    24   ar
    27    16    24   ar
    28     1    25    1
    29     1    26    1
    30     2    27    1
    31     2    28    1
    32     3    29    1
    33     3    30    1
    34     4    31    1
    35     5    32    1
    36     5    33    1
    37     8    34    1
    38     8    35    1
    39    12    36    1
    40    14    37    1
    41    18    38    1
    42    19    39    1
    43    20    40    1
    44    23    41    1
