@<TRIPOS>MOLECULE
*****
 25 26 0 0 0
SMALL
GASTEIGER

@<TRIPOS>ATOM
      1 C           2.1618    0.8494   -0.0007 C.ar    1  LIG1       -0.0182
      2 C           0.9309    1.5107    0.0002 C.ar    1  LIG1       -0.0343
      3 C          -0.2274    0.7237   -0.0038 C.ar    1  LIG1        0.0470
      4 C          -0.1957   -0.6723   -0.0066 C.ar    1  LIG1        0.0063
      5 C           1.0596   -1.3180   -0.0080 C.ar    1  LIG1       -0.0108
      6 C           2.2186   -0.5380   -0.0053 C.ar    1  LIG1        0.1176
      7 O           3.4558   -1.1174   -0.0061 O.3     1  LIG1       -0.5067
      8 C          -1.5532   -1.1327   -0.0047 C.ar    1  LIG1       -0.0211
      9 C          -2.3563   -0.0079   -0.0082 C.ar    1  LIG1        0.0059
     10 N          -1.5501    1.0978   -0.0055 N.ar    1  LIG1       -0.3604
     11 C          -2.0222   -2.5557    0.0021 C.3     1  LIG1       -0.0133
     12 C          -2.2152   -3.0934    1.4255 C.3     1  LIG1       -0.0029
     13 N          -2.6727   -4.4844    1.4215 N.3     1  LIG1       -0.3297
     14 H           3.0837    1.4251    0.0025 H       1  LIG1        0.0655
     15 H           0.8840    2.5945    0.0037 H       1  LIG1        0.0639
     16 H           1.1078   -2.4010   -0.0115 H       1  LIG1        0.0661
     17 H           3.3411   -2.0819   -0.0112 H       1  LIG1        0.2921
     18 H          -3.4328    0.0978   -0.0114 H       1  LIG1        0.0810
     19 H          -1.8730    2.0558   -0.0047 H       1  LIG1        0.1653
     20 H          -1.3021   -3.1822   -0.5391 H       1  LIG1        0.0326
     21 H          -2.9682   -2.6244   -0.5509 H       1  LIG1        0.0326
     22 H          -2.9459   -2.4797    1.9654 H       1  LIG1        0.0425
     23 H          -1.2720   -3.0356    1.9806 H       1  LIG1        0.0425
     24 H          -3.5802   -4.5427    0.9603 H       1  LIG1        0.1182
     25 H          -2.8265   -4.7850    2.3838 H       1  LIG1        0.1182
@<TRIPOS>BOND
     1     1     2   ar
     2     2     3   ar
     3     3     4   ar
     4     4     5   ar
     5     5     6   ar
     6     1     6   ar
     7     6     7    1
     8     4     8   ar
     9     8     9   ar
    10     9    10   ar
    11     3    10   ar
    12     8    11    1
    13    11    12    1
    14    12    13    1
    15     1    14    1
    16     2    15    1
    17     5    16    1
    18     7    17    1
    19     9    18    1
    20    10    19    1
    21    11    20    1
    22    11    21    1
    23    12    22    1
    24    12    23    1
    25    13    24    1
    26    13    25    1
