@<TRIPOS>MOLECULE
*****
 35 36 0 0 0
SMALL
GASTEIGER

@<TRIPOS>ATOM
      1 C          -0.9959   -0.7432   -0.7300 C.3     1  UNL1        0.0000
      2 C           0.0389   -1.1084    0.3713 C.3     1  UNL1        0.0000
      3 C           1.4373   -0.8215   -0.2738 C.3     1  UNL1        0.0000
      4 H           1.4265   -1.2258   -1.3107 H       1  UNL1        0.0000
      5 C           1.4999    0.7195   -0.2157 C.3     1  UNL1        0.0000
      6 C           0.1078    1.1150    0.3294 C.3     1  UNL1        0.0000
      7 H           0.0725    2.1830    0.6341 H       1  UNL1        0.0000
      8 C          -0.9117    0.7908   -0.7848 C.3     1  UNL1        0.0000
      9 C          -0.1674    0.0371    1.4049 C.3     1  UNL1        0.0000
     10 C           0.8131    0.0530    2.6158 C.3     1  UNL1        0.0000
     11 C          -1.5883    0.1242    2.0475 C.3     1  UNL1        0.0000
     12 S           2.8757   -1.6063    0.5681 S.3     1  UNL1        0.0000
     13 C           4.0963   -1.1993   -0.7346 C.3     1  UNL1        0.0000
     14 C           5.4887   -1.6084   -0.3437 C.2     1  UNL1        0.0000
     15 O           5.7158   -2.1462    0.7290 O.2     1  UNL1        0.0000
     16 O           6.5067   -1.3742   -1.1932 O.3     1  UNL1        0.0000
     17 NA          8.3836   -1.9042   -0.6893 Na      1  UNL1        0.0000
     18 C          -0.1516   -2.5526    0.8597 C.3     1  UNL1        0.0000
     19 H          -2.0202   -1.0417   -0.4206 H       1  UNL1        0.0000
     20 H          -0.8158   -1.2375   -1.7095 H       1  UNL1        0.0000
     21 H           1.7679    1.1899   -1.1863 H       1  UNL1        0.0000
     22 H           2.2632    1.0556    0.5153 H       1  UNL1        0.0000
     23 H          -0.5943    1.1919   -1.7721 H       1  UNL1        0.0000
     24 H          -1.9081    1.2221   -0.5490 H       1  UNL1        0.0000
     25 H           1.8843    0.0318    2.3716 H       1  UNL1        0.0000
     26 H           0.6198   -0.8210    3.2736 H       1  UNL1        0.0000
     27 H           0.6601    0.9776    3.2127 H       1  UNL1        0.0000
     28 H          -2.4347    0.1516    1.3397 H       1  UNL1        0.0000
     29 H          -1.6709    1.0503    2.6560 H       1  UNL1        0.0000
     30 H          -1.7593   -0.7459    2.7166 H       1  UNL1        0.0000
     31 H           4.1075   -0.1026   -0.9038 H       1  UNL1        0.0000
     32 H           3.8282   -1.7358   -1.6689 H       1  UNL1        0.0000
     33 H           0.0023   -3.2627    0.0197 H       1  UNL1        0.0000
     34 H          -1.1779   -2.6945    1.2585 H       1  UNL1        0.0000
     35 H           0.5656   -2.7948    1.6703 H       1  UNL1        0.0000
@<TRIPOS>BOND
     1     1     2    1
     2     2     3    1
     3     3     4    1
     4     3     5    1
     5     5     6    1
     6     6     7    1
     7     6     8    1
     8     1     8    1
     9     6     9    1
    10     2     9    1
    11     9    10    1
    12     9    11    1
    13     3    12    1
    14    12    13    1
    15    13    14    1
    16    14    15    2
    17    14    16    1
    18    16    17    1
    19     2    18    1
    20     1    19    1
    21     1    20    1
    22     5    21    1
    23     5    22    1
    24     8    23    1
    25     8    24    1
    26    10    25    1
    27    10    26    1
    28    10    27    1
    29    11    28    1
    30    11    29    1
    31    11    30    1
    32    13    31    1
    33    13    32    1
    34    18    33    1
    35    18    34    1
    36    18    35    1
