@<TRIPOS>MOLECULE
*****
 48 50 0 0 0
SMALL
GASTEIGER

@<TRIPOS>ATOM
      1 C          12.5939    0.9609    0.8208 C.3     1  LIG1        0.0004
      2 N          11.9111   -0.1738    0.2559 N.am    1  LIG1       -0.3132
      3 C          10.5445   -0.1844    0.0313 C.2     1  LIG1        0.2623
      4 O           9.8001    0.7433    0.3031 O.2     1  LIG1       -0.2685
      5 C          10.0212   -1.4367   -0.6087 C.ar    1  LIG1        0.1288
      6 N          10.9306   -2.1630   -1.3178 N.ar    1  LIG1       -0.2501
      7 C          10.4473   -3.2188   -1.9985 C.ar    1  LIG1        0.0319
      8 C           9.1171   -3.5931   -1.9901 C.ar    1  LIG1       -0.0012
      9 C           8.2254   -2.9037   -1.1686 C.ar    1  LIG1        0.1321
     10 C           8.6757   -1.7789   -0.4785 C.ar    1  LIG1        0.0112
     11 O           6.8934   -3.2643   -1.0508 O.3     1  LIG1       -0.4559
     12 C           6.5506   -4.6054   -1.1167 C.ar    1  LIG1        0.1286
     13 C           7.3947   -5.6353   -0.6892 C.ar    1  LIG1       -0.0176
     14 C           7.0107   -6.9774   -0.7787 C.ar    1  LIG1       -0.0370
     15 C           5.7344   -7.3159   -1.2121 C.ar    1  LIG1        0.0350
     16 C           4.8734   -6.2830   -1.6226 C.ar    1  LIG1       -0.0370
     17 C           5.2808   -4.9381   -1.5891 C.ar    1  LIG1       -0.0176
     18 N           5.2248   -8.6388   -1.2567 N.am    1  LIG1       -0.2692
     19 C           5.8730   -9.8072   -0.8680 C.2     1  LIG1        0.3081
     20 O           7.0188   -9.8706   -0.4784 O.2     1  LIG1       -0.2522
     21 N           5.0067  -10.9004   -1.0153 N.am    1  LIG1       -0.2692
     22 C           5.3015  -12.2587   -0.7589 C.ar    1  LIG1        0.0354
     23 C           6.5375  -12.7154   -0.3025 C.ar    1  LIG1       -0.0274
     24 C           6.7637  -14.0747    0.0008 C.ar    1  LIG1        0.0748
     25 C           5.7275  -14.9894   -0.2024 C.ar    1  LIG1        0.0527
     26 C           4.4951  -14.5541   -0.6945 C.ar    1  LIG1       -0.0411
     27 C           4.2812  -13.1983   -0.9686 C.ar    1  LIG1       -0.0390
     28 CL          5.9044  -16.6704    0.1449 Cl      1  LIG1       -0.0830
     29 C           8.0951  -14.4991    0.5571 C.3     1  LIG1        0.4188
     30 F           8.9757  -13.4672    0.7017 F       1  LIG1       -0.1658
     31 F           7.9950  -15.0587    1.7948 F       1  LIG1       -0.1658
     32 F           8.7350  -15.4095   -0.2269 F       1  LIG1       -0.1658
     33 H          13.4843    0.6046    1.3454 H       1  LIG1        0.0426
     34 H          11.9445    1.4967    1.5181 H       1  LIG1        0.0426
     35 H          12.8926    1.6338    0.0124 H       1  LIG1        0.0426
     36 H          12.4382   -0.9629   -0.1025 H       1  LIG1        0.1487
     37 H          11.1706   -3.7868   -2.5764 H       1  LIG1        0.0831
     38 H           8.8014   -4.4437   -2.5837 H       1  LIG1        0.0669
     39 H           8.0165   -1.1869    0.1476 H       1  LIG1        0.0677
     40 H           8.3828   -5.4175   -0.2950 H       1  LIG1        0.0655
     41 H           7.7430   -7.7230   -0.4838 H       1  LIG1        0.0637
     42 H           3.8689   -6.5136   -1.9680 H       1  LIG1        0.0637
     43 H           4.5936   -4.1667   -1.9300 H       1  LIG1        0.0655
     44 H           4.2774   -8.7214   -1.5714 H       1  LIG1        0.1564
     45 H           4.0560  -10.6969   -1.2665 H       1  LIG1        0.1564
     46 H           7.3599  -12.0212   -0.1463 H       1  LIG1        0.0642
     47 H           3.6898  -15.2685   -0.8566 H       1  LIG1        0.0633
     48 H           3.3063  -12.8970   -1.3431 H       1  LIG1        0.0636
@<TRIPOS>BOND
     1     1     2    1
     2     2     3   am
     3     3     4    2
     4     3     5    1
     5     5     6   ar
     6     6     7   ar
     7     7     8   ar
     8     8     9   ar
     9     9    10   ar
    10     5    10   ar
    11     9    11    1
    12    11    12    1
    13    12    13   ar
    14    13    14   ar
    15    14    15   ar
    16    15    16   ar
    17    16    17   ar
    18    12    17   ar
    19    15    18    1
    20    18    19   am
    21    19    20    2
    22    19    21   am
    23    21    22    1
    24    22    23   ar
    25    23    24   ar
    26    24    25   ar
    27    25    26   ar
    28    26    27   ar
    29    22    27   ar
    30    25    28    1
    31    24    29    1
    32    29    30    1
    33    29    31    1
    34    29    32    1
    35     1    33    1
    36     1    34    1
    37     1    35    1
    38     2    36    1
    39     7    37    1
    40     8    38    1
    41    10    39    1
    42    13    40    1
    43    14    41    1
    44    16    42    1
    45    17    43    1
    46    18    44    1
    47    21    45    1
    48    23    46    1
    49    26    47    1
    50    27    48    1
