@<TRIPOS>MOLECULE
*****
 78 81 0 0 0
SMALL
GASTEIGER

@<TRIPOS>ATOM
      1 C           2.3910    3.3731    0.1310 C.3     1  LIG1       -0.0647
      2 C           2.3053    1.9856   -0.4966 C.3     1  LIG1       -0.0494
      3 C           1.3076    1.8768   -1.6804 C.3     1  LIG1       -0.0208
      4 H           1.6064    2.6402   -2.4128 H       1  LIG1        0.0345
      5 C          -0.1152    2.1662   -1.2418 C.2     1  LIG1       -0.0843
      6 C          -1.0188    2.8499   -1.9678 C.2     1  LIG1       -0.0845
      7 C          -2.4707    3.0801   -1.5637 C.3     1  LIG1       -0.0224
      8 H          -2.9650    3.5438   -2.4282 H       1  LIG1        0.0343
      9 C          -3.1504    1.7236   -1.3374 C.3     1  LIG1       -0.0587
     10 C          -2.5534    4.0576   -0.3624 C.3     1  LIG1       -0.0291
     11 H          -1.9749    3.6135    0.4576 H       1  LIG1        0.0312
     12 C          -1.8824    5.4042   -0.6820 C.3     1  LIG1       -0.0486
     13 C          -2.2398    6.2522    0.5202 C.3     1  LIG1       -0.0457
     14 C          -3.7130    5.9249    0.7848 C.3     1  LIG1       -0.0139
     15 H          -4.2994    6.6394    0.1893 H       1  LIG1        0.0351
     16 C          -3.9565    4.4790    0.2069 C.3     1  LIG1       -0.0222
     17 C          -4.4899    3.4708    1.2599 C.3     1  LIG1       -0.0463
     18 C          -3.7012    3.3775    2.5661 C.3     1  LIG1       -0.0455
     19 C          -3.5292    4.7258    3.2717 C.3     1  LIG1       -0.0139
     20 H          -2.4291    4.8619    3.2629 H       1  LIG1        0.0351
     21 C          -4.0647    6.1436    2.2357 C.2     1  LIG1       -0.0662
     22 C          -4.7714    7.3458    2.6529 C.2     1  LIG1       -0.0839
     23 C          -5.2636    7.7420    4.4238 C.3     1  LIG1       -0.0311
     24 C          -4.5944    6.4680    5.6847 C.3     1  LIG1       -0.0293
     25 H          -3.9364    6.9570    6.4135 H       1  LIG1        0.0310
     26 C          -3.9239    4.7531    5.1784 C.3     1  LIG1       -0.0223
     27 C          -4.9828    3.7390    5.5376 C.3     1  LIG1       -0.0445
     28 C          -6.0340    4.0853    4.5695 C.3     1  LIG1       -0.0263
     29 C          -5.7439    5.5314    4.0868 C.3     1  LIG1        0.0556
     30 H          -6.4723    6.0163    4.7675 H       1  LIG1        0.0593
     31 C          -3.9928    6.4274    4.4715 C.3     1  LIG1       -0.0232
     32 O          -6.4718    5.6214    2.8424 O.3     1  LIG1       -0.3918
     33 C          -2.6637    4.3731    6.0070 C.3     1  LIG1       -0.0588
     34 C          -5.0297    4.6062   -0.9020 C.3     1  LIG1       -0.0587
     35 C           1.4385    0.4858   -2.3839 C.3     1  LIG1       -0.0405
     36 C           0.9754   -0.6972   -1.5256 C.3     1  LIG1       -0.0621
     37 C           0.7049    0.4405   -3.7323 C.3     1  LIG1       -0.0621
     38 H           3.2174    3.4055    0.8506 H       1  LIG1        0.0230
     39 H           1.4750    3.6294    0.6717 H       1  LIG1        0.0230
     40 H           2.5779    4.1401   -0.6264 H       1  LIG1        0.0230
     41 H           2.0568    1.2668    0.2936 H       1  LIG1        0.0268
     42 H           3.3081    1.7201   -0.8551 H       1  LIG1        0.0268
     43 H          -0.4124    1.7617   -0.2757 H       1  LIG1        0.0572
     44 H          -0.7337    3.2571   -2.9367 H       1  LIG1        0.0572
     45 H          -2.9552    1.0443   -2.1759 H       1  LIG1        0.0235
     46 H          -4.2364    1.8139   -1.2683 H       1  LIG1        0.0235
     47 H          -2.7960    1.2377   -0.4224 H       1  LIG1        0.0235
     48 H          -2.2878    5.8429   -1.6016 H       1  LIG1        0.0268
     49 H          -0.7967    5.3236   -0.7915 H       1  LIG1        0.0268
     50 H          -1.5994    5.9812    1.3679 H       1  LIG1        0.0271
     51 H          -2.0877    7.3182    0.3207 H       1  LIG1        0.0271
     52 H          -4.5349    2.4659    0.8299 H       1  LIG1        0.0271
     53 H          -5.5309    3.7155    1.4964 H       1  LIG1        0.0271
     54 H          -2.7068    2.9632    2.3569 H       1  LIG1        0.0271
     55 H          -4.1558    2.6294    3.2181 H       1  LIG1        0.0271
     56 H          -5.0728    8.1169    1.9497 H       1  LIG1        0.0572
     57 H          -6.3528    7.8773    4.4829 H       1  LIG1        0.0310
     58 H          -4.8158    8.7248    4.6652 H       1  LIG1        0.0310
     59 H          -5.3253    3.8793    6.5691 H       1  LIG1        0.0272
     60 H          -4.6548    2.7007    5.4314 H       1  LIG1        0.0272
     61 H          -7.0297    4.0139    5.0275 H       1  LIG1        0.0290
     62 H          -6.0823    3.3815    3.7342 H       1  LIG1        0.0290
     63 H          -3.4898    7.4106    4.1859 H       1  LIG1        0.0293
     64 H          -2.9122    6.1260    4.5392 H       1  LIG1        0.0293
     65 H          -7.3686    5.2770    2.9795 H       1  LIG1        0.2098
     66 H          -1.8303    5.0669    5.8613 H       1  LIG1        0.0235
     67 H          -2.3108    3.3747    5.7273 H       1  LIG1        0.0235
     68 H          -2.8982    4.3673    7.0773 H       1  LIG1        0.0235
     69 H          -4.6963    5.2600   -1.7149 H       1  LIG1        0.0235
     70 H          -5.9549    5.0333   -0.4957 H       1  LIG1        0.0235
     71 H          -5.2977    3.6422   -1.3394 H       1  LIG1        0.0235
     72 H           2.5029    0.3256   -2.6048 H       1  LIG1        0.0301
     73 H          -0.0930   -0.6374   -1.2959 H       1  LIG1        0.0233
     74 H           1.5307   -0.7564   -0.5857 H       1  LIG1        0.0233
     75 H           1.1434   -1.6411   -2.0573 H       1  LIG1        0.0233
     76 H          -0.3543    0.6951   -3.6372 H       1  LIG1        0.0233
     77 H           0.7558   -0.5633   -4.1693 H       1  LIG1        0.0233
     78 H           1.1627    1.1334   -4.4456 H       1  LIG1        0.0233
@<TRIPOS>BOND
     1     1     2    1
     2     3     5    1
     3     5     6    2
     4     6     7    1
     5     7     8    1
     6     7     9    1
     7    10    12    1
     8    12    13    1
     9    13    14    1
    10    14    16    1
    11    10    16    1
    12    16    17    1
    13    17    18    1
    14    18    19    1
    15    19    21    1
    16    14    21    1
    17    21    22    2
    18    22    23    1
    19    23    24    1
    20    24    26    1
    21    19    26    1
    22    26    27    1
    23    27    28    1
    24    28    29    1
    25    29    31    1
    26    24    31    1
    27     3    35    1
    28    35    36    1
    29    35    37    1
    30    14    15    1
    31    16    34    1
    32    19    20    1
    33    24    25    1
    34    26    33    1
    35    10    11    1
    36    10     7    1
    37     3     4    1
    38     3     2    1
    39    29    32    1
    40    29    30    1
    41     1    38    1
    42     1    39    1
    43     1    40    1
    44     2    41    1
    45     2    42    1
    46     5    43    1
    47     6    44    1
    48     9    45    1
    49     9    46    1
    50     9    47    1
    51    12    48    1
    52    12    49    1
    53    13    50    1
    54    13    51    1
    55    17    52    1
    56    17    53    1
    57    18    54    1
    58    18    55    1
    59    22    56    1
    60    23    57    1
    61    23    58    1
    62    27    59    1
    63    27    60    1
    64    28    61    1
    65    28    62    1
    66    31    63    1
    67    31    64    1
    68    32    65    1
    69    33    66    1
    70    33    67    1
    71    33    68    1
    72    34    69    1
    73    34    70    1
    74    34    71    1
    75    35    72    1
    76    36    73    1
    77    36    74    1
    78    36    75    1
    79    37    76    1
    80    37    77    1
    81    37    78    1
