@<TRIPOS>MOLECULE
*****
 43 45 0 0 0
SMALL
GASTEIGER

@<TRIPOS>ATOM
      1 C           2.6352   -0.1079    1.3511 C.3     1  LIG1       -0.0606
      2 C           2.3986   -0.0106   -0.1493 C.3     1  LIG1       -0.0224
      3 H           1.5068    0.6236   -0.2700 H       1  LIG1        0.0317
      4 C           2.0348   -1.3746   -0.7448 C.3     1  LIG1       -0.0328
      5 C           1.6150   -1.2459   -2.2016 C.3     1  LIG1        0.0151
      6 N           2.5722   -0.5042   -3.0234 N.am    1  LIG1       -0.2989
      7 C           3.1037    0.7480   -2.4405 C.3     1  LIG1        0.0335
      8 C           3.5315    0.6866   -0.9384 C.3     1  LIG1        0.0429
      9 H           3.5459    1.7402   -0.6293 H       1  LIG1        0.0518
     10 N           4.8937    0.1089   -0.7222 N.pl3   1  LIG1       -0.3128
     11 C           5.2088   -1.2313   -1.1757 C.3     1  LIG1        0.0024
     12 C           5.7525    0.6906    0.2301 C.ar    1  LIG1        0.1338
     13 N           5.4523    1.9463    0.6842 N.ar    1  LIG1       -0.2200
     14 C           6.2881    2.5848    1.5301 C.ar    1  LIG1        0.1204
     15 N           7.4823    2.1808    1.9780 N.ar    1  LIG1       -0.2178
     16 C           7.7478    0.9359    1.5688 C.ar    1  LIG1        0.1432
     17 C           6.9488    0.1153    0.7768 C.ar    1  LIG1        0.0585
     18 C           7.6200   -1.1547    0.7903 C.ar    1  LIG1       -0.0318
     19 C           8.8049   -1.0310    1.4867 C.ar    1  LIG1        0.0042
     20 N           8.8980    0.2694    1.8945 N.ar    1  LIG1       -0.3457
     21 C           2.4478   -0.7072   -4.4043 C.2     1  LIG1        0.2295
     22 O           1.6098   -1.4870   -4.8702 O.2     1  LIG1       -0.2745
     23 C           3.3913    0.0000   -5.3508 C.3     1  LIG1        0.1112
     24 C           4.5760   -0.8329   -5.5863 C.1     1  LIG1        0.0719
     25 N           5.5252   -1.4572   -5.7823 N.1     1  LIG1       -0.1961
     26 H           3.4502   -0.7941    1.5950 H       1  LIG1        0.0233
     27 H           1.7287   -0.4768    1.8448 H       1  LIG1        0.0233
     28 H           2.8587    0.8764    1.7741 H       1  LIG1        0.0233
     29 H           1.2184   -1.8335   -0.1763 H       1  LIG1        0.0284
     30 H           2.8682   -2.0754   -0.6687 H       1  LIG1        0.0284
     31 H           0.6481   -0.7331   -2.2736 H       1  LIG1        0.0465
     32 H           1.4777   -2.2526   -2.6157 H       1  LIG1        0.0465
     33 H           2.2717    1.4634   -2.5303 H       1  LIG1        0.0483
     34 H           3.9232    1.1477   -3.0389 H       1  LIG1        0.0483
     35 H           4.6802   -1.4972   -2.0912 H       1  LIG1        0.0428
     36 H           4.9547   -1.9589   -0.3980 H       1  LIG1        0.0428
     37 H           6.2651   -1.3405   -1.4342 H       1  LIG1        0.0428
     38 H           5.9487    3.5460    1.9028 H       1  LIG1        0.1048
     39 H           7.2767   -2.0867    0.3649 H       1  LIG1        0.0640
     40 H           9.5779   -1.7505    1.7260 H       1  LIG1        0.0807
     41 H           9.6615    0.6834    2.4105 H       1  LIG1        0.1668
     42 H           3.6664    0.9936   -5.0010 H       1  LIG1        0.0513
     43 H           2.8553    0.1633   -6.2938 H       1  LIG1        0.0513
@<TRIPOS>BOND
     1     2     4    1
     2     4     5    1
     3     5     6    1
     4     6     7    1
     5     7     8    1
     6     8     9    1
     7     2     8    1
     8     8    10    1
     9    10    11    1
    10    10    12    1
    11    12    13   ar
    12    13    14   ar
    13    14    15   ar
    14    15    16   ar
    15    16    17   ar
    16    12    17   ar
    17    17    18   ar
    18    18    19   ar
    19    19    20   ar
    20    16    20   ar
    21     6    21   am
    22    21    22    2
    23    21    23    1
    24    23    24    1
    25    24    25    3
    26     2     3    1
    27     2     1    1
    28     1    26    1
    29     1    27    1
    30     1    28    1
    31     4    29    1
    32     4    30    1
    33     5    31    1
    34     5    32    1
    35     7    33    1
    36     7    34    1
    37    11    35    1
    38    11    36    1
    39    11    37    1
    40    14    38    1
    41    18    39    1
    42    19    40    1
    43    20    41    1
    44    23    42    1
    45    23    43    1
