@<TRIPOS>MOLECULE
*****
 48 47 0 0 0
SMALL
GASTEIGER

@<TRIPOS>ATOM
      1 C           1.2523   -2.0407   -8.1357 C.3     1  LIG1       -0.0618
      2 C           2.3116   -2.8898   -8.8324 C.3     1  LIG1       -0.0373
      3 C           3.6268   -2.1938   -9.0652 C.2     1  LIG1       -0.0843
      4 C           4.1131   -1.2115   -8.2937 C.2     1  LIG1       -0.0657
      5 C           5.3547   -0.5226   -8.5390 C.2     1  LIG1       -0.0621
      6 C           5.7925    0.4342   -7.7079 C.2     1  LIG1       -0.0618
      7 C           7.0224    1.1584   -7.9165 C.2     1  LIG1       -0.0618
      8 C           7.4441    2.1182   -7.0805 C.2     1  LIG1       -0.0621
      9 C           8.6615    2.8619   -7.3016 C.2     1  LIG1       -0.0657
     10 C           9.0982    3.8109   -6.4600 C.2     1  LIG1       -0.0840
     11 C          10.3011    4.6669   -6.7350 C.3     1  LIG1       -0.0345
     12 C          11.6123    4.1066   -6.1719 C.3     1  LIG1       -0.0496
     13 C          12.7733    5.0681   -6.4848 C.3     1  LIG1       -0.0528
     14 C          14.1176    4.5860   -5.9296 C.3     1  LIG1       -0.0530
     15 C          15.3045    5.5115   -6.2627 C.3     1  LIG1       -0.0526
     16 C          15.1989    6.9145   -5.6501 C.3     1  LIG1       -0.0430
     17 C          16.3585    7.8407   -6.0016 C.3     1  LIG1        0.0448
     18 C          17.6882    7.3084   -5.5539 C.2     1  LIG1        0.3047
     19 O          17.9829    7.1083   -4.3884 O.2     1  LIG1       -0.2510
     20 O          18.5740    7.0962   -6.5720 O.3     1  LIG1       -0.4806
     21 H           0.3264   -2.6094   -8.0038 H       1  LIG1        0.0233
     22 H           1.0230   -1.1504   -8.7320 H       1  LIG1        0.0233
     23 H           1.5755   -1.7132   -7.1420 H       1  LIG1        0.0233
     24 H           1.9101   -3.1990   -9.8051 H       1  LIG1        0.0305
     25 H           2.4957   -3.8065   -8.2602 H       1  LIG1        0.0305
     26 H           4.1951   -2.5367   -9.9284 H       1  LIG1        0.0572
     27 H           3.5625   -0.8927   -7.4122 H       1  LIG1        0.0614
     28 H           5.9245   -0.7965   -9.4234 H       1  LIG1        0.0617
     29 H           5.2085    0.6945   -6.8262 H       1  LIG1        0.0618
     30 H           7.6086    0.8977   -8.7945 H       1  LIG1        0.0618
     31 H           6.8521    2.3785   -6.2050 H       1  LIG1        0.0617
     32 H           9.2271    2.6403   -8.2046 H       1  LIG1        0.0614
     33 H           8.5348    4.0407   -5.5577 H       1  LIG1        0.0572
     34 H          10.1122    5.6568   -6.3022 H       1  LIG1        0.0307
     35 H          10.4007    4.8207   -7.8168 H       1  LIG1        0.0307
     36 H          11.8127    3.1215   -6.6121 H       1  LIG1        0.0268
     37 H          11.5222    3.9580   -5.0885 H       1  LIG1        0.0268
     38 H          12.5366    6.0538   -6.0701 H       1  LIG1        0.0265
     39 H          12.8530    5.1897   -7.5719 H       1  LIG1        0.0265
     40 H          14.3355    3.5931   -6.3431 H       1  LIG1        0.0265
     41 H          14.0452    4.4647   -4.8423 H       1  LIG1        0.0265
     42 H          15.4155    5.5890   -7.3507 H       1  LIG1        0.0265
     43 H          16.2153    5.0279   -5.8865 H       1  LIG1        0.0265
     44 H          15.1138    6.8282   -4.5609 H       1  LIG1        0.0270
     45 H          14.2843    7.4045   -6.0049 H       1  LIG1        0.0270
     46 H          16.2243    8.8087   -5.5014 H       1  LIG1        0.0377
     47 H          16.3745    8.0513   -7.0744 H       1  LIG1        0.0377
     48 H          18.2278    7.2996   -7.4448 H       1  LIG1        0.2951
@<TRIPOS>BOND
     1     1     2    1
     2     2     3    1
     3     3     4    2
     4     4     5    1
     5     5     6    2
     6     6     7    1
     7     7     8    2
     8     8     9    1
     9     9    10    2
    10    10    11    1
    11    11    12    1
    12    12    13    1
    13    13    14    1
    14    14    15    1
    15    15    16    1
    16    16    17    1
    17    17    18    1
    18    18    19    2
    19    18    20    1
    20     1    21    1
    21     1    22    1
    22     1    23    1
    23     2    24    1
    24     2    25    1
    25     3    26    1
    26     4    27    1
    27     5    28    1
    28     6    29    1
    29     7    30    1
    30     8    31    1
    31     9    32    1
    32    10    33    1
    33    11    34    1
    34    11    35    1
    35    12    36    1
    36    12    37    1
    37    13    38    1
    38    13    39    1
    39    14    40    1
    40    14    41    1
    41    15    42    1
    42    15    43    1
    43    16    44    1
    44    16    45    1
    45    17    46    1
    46    17    47    1
    47    20    48    1
