@<TRIPOS>MOLECULE
*****
 68 71 0 0 0
SMALL
GASTEIGER

@<TRIPOS>ATOM
      1 C           2.0886   -0.4714   -0.5025 C.3     1  LIG1       -0.0621
      2 C           3.4305    0.3002   -0.3399 C.3     1  LIG1       -0.0400
      3 C           3.2243    1.6691   -1.0420 C.3     1  LIG1       -0.0401
      4 C           2.1532    2.5640   -0.4060 C.3     1  LIG1        0.0450
      5 C           1.9794    3.8998   -1.0709 C.2     1  LIG1        0.3047
      6 O           1.6282    4.9410   -0.5061 O.2     1  LIG1       -0.2510
      7 O           2.1002    3.8654   -2.4071 O.3     1  LIG1       -0.4806
      8 C           3.8769    0.3247    1.1731 C.3     1  LIG1       -0.0328
      9 C           4.0188   -1.1273    1.7365 C.3     1  LIG1       -0.0492
     10 C           5.4874   -1.3740    2.1002 C.3     1  LIG1       -0.0491
     11 C           6.2581   -0.1191    1.6778 C.3     1  LIG1       -0.0299
     12 C           5.1920    1.0098    1.7367 C.3     1  LIG1       -0.0258
     13 C           5.7204    2.3365    1.1397 C.3     1  LIG1       -0.0468
     14 C           7.0597    2.2249    0.3957 C.3     1  LIG1       -0.0489
     15 C           7.0452    1.0045   -0.5192 C.3     1  LIG1       -0.0299
     16 C           6.9023   -0.3204    0.2807 C.3     1  LIG1       -0.0083
     17 C           8.1897   -1.1753    0.3159 C.3     1  LIG1        0.0589
     18 C           8.7562   -1.4367   -1.0910 C.3     1  LIG1       -0.0232
     19 C           8.1663   -0.5095   -2.1727 C.3     1  LIG1       -0.0307
     20 C           8.0892    0.9690   -1.6930 C.3     1  LIG1       -0.0258
     21 C           7.5436    1.8593   -2.8538 C.3     1  LIG1       -0.0448
     22 C           8.2603    1.6541   -4.1907 C.3     1  LIG1       -0.0263
     23 C           8.2840    0.1882   -4.6111 C.3     1  LIG1        0.0555
     24 C           8.8817   -0.6991   -3.5190 C.3     1  LIG1       -0.0234
     25 O           6.9472   -0.2246   -4.8953 O.3     1  LIG1       -0.3918
     26 C           9.4782    1.5249   -1.3000 C.3     1  LIG1       -0.0590
     27 O           9.2127   -0.6318    1.1467 O.3     1  LIG1       -0.3915
     28 C           4.8926    1.3436    3.2367 C.3     1  LIG1       -0.0590
     29 H           1.6453   -0.3003   -1.4921 H       1  LIG1        0.0233
     30 H           1.3541   -0.1529    0.2458 H       1  LIG1        0.0233
     31 H           2.2130   -1.5531   -0.4089 H       1  LIG1        0.0233
     32 H           4.1719   -0.2539   -0.9263 H       1  LIG1        0.0301
     33 H           2.9315    1.4707   -2.0829 H       1  LIG1        0.0273
     34 H           4.1666    2.2055   -1.1504 H       1  LIG1        0.0273
     35 H           2.3938    2.7473    0.6472 H       1  LIG1        0.0378
     36 H           1.1718    2.0769   -0.4508 H       1  LIG1        0.0378
     37 H           1.8240    4.7604   -2.6994 H       1  LIG1        0.2951
     38 H           3.0253    0.7823    1.6936 H       1  LIG1        0.0309
     39 H           3.6785   -1.9089    1.0538 H       1  LIG1        0.0268
     40 H           3.4092   -1.2251    2.6437 H       1  LIG1        0.0268
     41 H           5.8615   -2.2882    1.6271 H       1  LIG1        0.0268
     42 H           5.5822   -1.5316    3.1814 H       1  LIG1        0.0268
     43 H           7.0507    0.0803    2.4107 H       1  LIG1        0.0310
     44 H           5.8767    3.0847    1.9295 H       1  LIG1        0.0271
     45 H           4.9734    2.8070    0.5061 H       1  LIG1        0.0271
     46 H           7.8796    2.1615    1.1222 H       1  LIG1        0.0268
     47 H           7.2183    3.1495   -0.1705 H       1  LIG1        0.0268
     48 H           6.0804    1.0788   -1.0325 H       1  LIG1        0.0310
     49 H           6.1955   -0.9301   -0.2990 H       1  LIG1        0.0331
     50 H           7.9645   -2.1494    0.7635 H       1  LIG1        0.0596
     51 H           9.8515   -1.3785   -1.0851 H       1  LIG1        0.0293
     52 H           8.5054   -2.4679   -1.3740 H       1  LIG1        0.0293
     53 H           7.1324   -0.8467   -2.3447 H       1  LIG1        0.0308
     54 H           7.6017    2.9198   -2.5776 H       1  LIG1        0.0271
     55 H           6.4779    1.6500   -3.0145 H       1  LIG1        0.0271
     56 H           9.2835    2.0404   -4.1336 H       1  LIG1        0.0290
     57 H           7.7356    2.2448   -4.9517 H       1  LIG1        0.0290
     58 H           8.8596    0.0822   -5.5367 H       1  LIG1        0.0593
     59 H           9.9522   -0.4905   -3.4171 H       1  LIG1        0.0293
     60 H           8.7842   -1.7508   -3.8176 H       1  LIG1        0.0293
     61 H           6.9894   -1.1222   -5.2668 H       1  LIG1        0.2098
     62 H           9.9191    1.0201   -0.4417 H       1  LIG1        0.0235
     63 H           9.4283    2.5909   -1.0524 H       1  LIG1        0.0235
     64 H          10.1996    1.4262   -2.1180 H       1  LIG1        0.0235
     65 H           8.9884    0.2822    1.3813 H       1  LIG1        0.2098
     66 H           4.5020    0.4924    3.8019 H       1  LIG1        0.0235
     67 H           4.1433    2.1419    3.3031 H       1  LIG1        0.0235
     68 H           5.7968    1.6842    3.7533 H       1  LIG1        0.0235
@<TRIPOS>BOND
     1     1     2    1
     2     2     3    1
     3     3     4    1
     4     4     5    1
     5     5     6    2
     6     5     7    1
     7     2     8    1
     8     8     9    1
     9     9    10    1
    10    10    11    1
    11    11    12    1
    12     8    12    1
    13    12    13    1
    14    13    14    1
    15    14    15    1
    16    15    16    1
    17    11    16    1
    18    16    17    1
    19    17    18    1
    20    18    19    1
    21    19    20    1
    22    15    20    1
    23    20    21    1
    24    21    22    1
    25    22    23    1
    26    23    24    1
    27    19    24    1
    28    23    25    1
    29    20    26    1
    30    17    27    1
    31    12    28    1
    32     1    29    1
    33     1    30    1
    34     1    31    1
    35     2    32    1
    36     3    33    1
    37     3    34    1
    38     4    35    1
    39     4    36    1
    40     7    37    1
    41     8    38    1
    42     9    39    1
    43     9    40    1
    44    10    41    1
    45    10    42    1
    46    11    43    1
    47    13    44    1
    48    13    45    1
    49    14    46    1
    50    14    47    1
    51    15    48    1
    52    16    49    1
    53    17    50    1
    54    18    51    1
    55    18    52    1
    56    19    53    1
    57    21    54    1
    58    21    55    1
    59    22    56    1
    60    22    57    1
    61    23    58    1
    62    24    59    1
    63    24    60    1
    64    25    61    1
    65    26    62    1
    66    26    63    1
    67    26    64    1
    68    27    65    1
    69    28    66    1
    70    28    67    1
    71    28    68    1
