@<TRIPOS>MOLECULE
*****
 78 83 0 0 0
SMALL
GASTEIGER

@<TRIPOS>ATOM
      1 C           3.2072   -0.5112   -2.7903 C.3     1  LIG1       -0.0556
      2 C           3.8915   -0.1976   -1.4393 C.3     1  LIG1       -0.0072
      3 C           3.3111   -1.1355   -0.3419 C.3     1  LIG1       -0.0367
      4 C           3.7010   -2.5966   -0.5213 C.3     1  LIG1        0.0107
      5 C           5.1950   -2.7480   -0.6430 C.2     1  LIG1        0.1561
      6 O           5.7704   -3.7966   -0.3606 O.2     1  LIG1       -0.2927
      7 C           5.9766   -1.6217   -1.2043 C.2     1  LIG1       -0.0194
      8 C           5.3956   -0.4731   -1.5960 C.2     1  LIG1       -0.0601
      9 C           6.2373    0.5869   -2.2724 C.3     1  LIG1       -0.0305
     10 C           5.9714    1.9865   -1.7234 C.3     1  LIG1       -0.0459
     11 C           4.4831    2.3056   -1.8489 C.3     1  LIG1       -0.0337
     12 C           3.6494    1.2956   -0.9942 C.3     1  LIG1       -0.0288
     13 C           2.1396    1.6852   -0.8491 C.3     1  LIG1       -0.0485
     14 C           1.8171    3.2005   -0.7626 C.3     1  LIG1       -0.0435
     15 C           2.6313    4.0258   -1.7891 C.3     1  LIG1        0.0111
     16 C           2.2065    3.5849   -3.2166 C.3     1  LIG1       -0.0558
     17 C           4.1003    3.7033   -1.3854 C.3     1  LIG1       -0.0289
     18 C           4.8883    4.9517   -1.7299 C.3     1  LIG1       -0.0458
     19 C           3.9414    6.0270   -1.1546 C.3     1  LIG1       -0.0118
     20 C           2.5822    5.6021   -1.7149 C.3     1  LIG1        0.1323
     21 O           2.5508    6.1600   -3.0418 O.3     1  LIG1       -0.3760
     22 C           1.3835    6.0969   -1.0437 C.1     1  LIG1       -0.0616
     23 C           0.2408    6.3759   -0.7859 C.1     1  LIG1       -0.0565
     24 C          -1.1701    6.5302   -0.7662 C.ar    1  LIG1        0.1056
     25 C          -1.9564    5.4888   -1.0720 C.ar    1  LIG1        0.0326
     26 N          -3.3352    5.5760   -1.1801 N.ar    1  LIG1       -0.2703
     27 C1*        -4.0727    4.3543   -1.5213 C.3     1  LIG1        0.1680
     28 O4*        -4.4297    3.6809   -0.2923 O.3     1  LIG1       -0.3456
     29 C4*        -5.7274    3.1124   -0.5155 C.3     1  LIG1        0.1126
     30 H4*        -5.6082    2.1550   -1.0420 H       1  LIG1        0.0647
     31 C5*        -6.4583    2.8476    0.7941 C.3     1  LIG1        0.0730
     32 O5*        -7.7462    2.2964    0.5278 O.3     1  LIG1       -0.3924
     33 C3*        -6.4548    4.1072   -1.4129 C.3     1  LIG1        0.1135
     34 H3*        -6.7856    4.9793   -0.8400 H       1  LIG1        0.0647
     35 O3*        -7.5748    3.5406   -2.0901 O.3     1  LIG1       -0.3864
     36 C2*        -5.3489    4.4855   -2.3868 C.3     1  LIG1        0.1286
     37 H2*        -5.4880    5.4573   -2.8654 H       1  LIG1        0.0665
     38 O2*        -5.3249    3.5182   -3.4591 O.3     1  LIG1       -0.3847
     39 C          -3.9973    6.7566   -0.8883 C.ar    1  LIG1        0.3315
     40 O          -5.2173    6.8944   -0.8887 O.2     1  LIG1       -0.2464
     41 N          -3.1952    7.8325   -0.6028 N.ar    1  LIG1       -0.2739
     42 H          -3.6615    8.7124   -0.4461 H       1  LIG1        0.1735
     43 C          -1.8270    7.8418   -0.5503 C.ar    1  LIG1        0.2694
     44 O          -1.1967    8.8742   -0.3448 O.2     1  LIG1       -0.2664
     45 H           3.5148   -1.4866   -3.1847 H       1  LIG1        0.0238
     46 H           3.4495    0.2292   -3.5586 H       1  LIG1        0.0238
     47 H           2.1169   -0.5438   -2.6940 H       1  LIG1        0.0238
     48 H           2.2172   -1.0673   -0.3109 H       1  LIG1        0.0278
     49 H           3.6704   -0.8065    0.6438 H       1  LIG1        0.0278
     50 H           3.2311   -3.0312   -1.4091 H       1  LIG1        0.0345
     51 H           3.3679   -3.1651    0.3541 H       1  LIG1        0.0345
     52 H           7.0358   -1.8168   -1.3346 H       1  LIG1        0.0652
     53 H           6.0167    0.5707   -3.3479 H       1  LIG1        0.0310
     54 H           7.3073    0.3677   -2.1742 H       1  LIG1        0.0310
     55 H           6.5633    2.7098   -2.2964 H       1  LIG1        0.0271
     56 H           6.2982    2.0551   -0.6787 H       1  LIG1        0.0271
     57 H           4.2400    2.1962   -2.9095 H       1  LIG1        0.0307
     58 H           4.0543    1.3804    0.0283 H       1  LIG1        0.0312
     59 H           1.7359    1.2083    0.0532 H       1  LIG1        0.0268
     60 H           1.5590    1.2712   -1.6775 H       1  LIG1        0.0268
     61 H           2.0273    3.5465    0.2586 H       1  LIG1        0.0272
     62 H           0.7405    3.3361   -0.9164 H       1  LIG1        0.0272
     63 H           2.1413    2.5023   -3.3449 H       1  LIG1        0.0236
     64 H           2.9076    3.9459   -3.9767 H       1  LIG1        0.0236
     65 H           1.2092    3.9761   -3.4523 H       1  LIG1        0.0236
     66 H           4.1703    3.6723   -0.2835 H       1  LIG1        0.0310
     67 H           5.0256    5.0648   -2.8105 H       1  LIG1        0.0269
     68 H           5.8675    4.9817   -1.2430 H       1  LIG1        0.0269
     69 H           4.2537    7.0265   -1.4756 H       1  LIG1        0.0303
     70 H           3.9511    5.9997   -0.0577 H       1  LIG1        0.0303
     71 H           2.4611    7.1243   -2.9433 H       1  LIG1        0.2114
     72 H          -1.5192    4.5125   -1.2710 H       1  LIG1        0.0825
     73 H1*        -3.3800    3.6837   -2.0479 H       1  LIG1        0.0867
     74 H5*1       -5.8856    2.1437    1.4078 H       1  LIG1        0.0584
     75 H5*2       -6.5791    3.7686    1.3739 H       1  LIG1        0.0584
     76 H5*        -8.0932    1.9748    1.3803 H       1  LIG1        0.2095
     77 H3*        -8.1127    3.1092   -1.3912 H       1  LIG1        0.2100
     78 H2*        -6.2722    3.3228   -3.6290 H       1  LIG1        0.2101
@<TRIPOS>BOND
     1     2     3    1
     2     3     4    1
     3     4     5    1
     4     5     7    1
     5     7     8    2
     6     2     8    1
     7     8     9    1
     8     9    10    1
     9    10    11    1
    10    11    12    1
    11     2    12    1
    12    12    13    1
    13    13    14    1
    14    14    15    1
    15    15    17    1
    16    11    17    1
    17    17    18    1
    18    18    19    1
    19    19    20    1
    20    15    20    1
    21    22    23    3
    22    23    24    1
    23    24    25   ar
    24    25    26   ar
    25    26    27    1
    26    27    28    1
    27    28    29    1
    28    31    32    1
    29    29    33    1
    30    33    34    1
    31    33    35    1
    32    33    36    1
    33    36    37    1
    34    27    36    1
    35    36    38    1
    36    26    39   ar
    37    39    40    2
    38    39    41   ar
    39    41    42    1
    40    41    43   ar
    41    24    43   ar
    42    43    44    2
    43     1     2    1
    44     5     6    2
    45    15    16    1
    46    20    21    1
    47    20    22    1
    48    29    31    1
    49    29    30    1
    50     1    45    1
    51     1    46    1
    52     1    47    1
    53     3    48    1
    54     3    49    1
    55     4    50    1
    56     4    51    1
    57     7    52    1
    58     9    53    1
    59     9    54    1
    60    10    55    1
    61    10    56    1
    62    11    57    1
    63    12    58    1
    64    13    59    1
    65    13    60    1
    66    14    61    1
    67    14    62    1
    68    16    63    1
    69    16    64    1
    70    16    65    1
    71    17    66    1
    72    18    67    1
    73    18    68    1
    74    19    69    1
    75    19    70    1
    76    21    71    1
    77    25    72    1
    78    27    73    1
    79    31    74    1
    80    31    75    1
    81    32    76    1
    82    35    77    1
    83    38    78    1
