@<TRIPOS>MOLECULE
*****
 79 80 0 0 0
SMALL
GASTEIGER

@<TRIPOS>ATOM
      1 C          22.9510   -3.5589    1.1783 C.3     1  LIG1       -0.0653
      2 C          21.6967   -2.7314    0.9263 C.3     1  LIG1       -0.0559
      3 C          20.4401   -3.5613    1.1673 C.3     1  LIG1       -0.0533
      4 C          19.1433   -2.7786    0.9106 C.3     1  LIG1       -0.0531
      5 C          17.8837   -3.6502    1.0920 C.3     1  LIG1       -0.0531
      6 C          17.9091   -4.8151    0.0808 C.3     1  LIG1       -0.0531
      7 C          16.7384   -5.7816    0.1505 C.3     1  LIG1       -0.0531
      8 C          16.9477   -7.0613   -0.6858 C.3     1  LIG1       -0.0531
      9 C          15.7795   -8.0712   -0.6555 C.3     1  LIG1       -0.0531
     10 C          15.4316   -8.7511    0.6852 C.3     1  LIG1       -0.0531
     11 C          14.9292   -7.7923    1.7696 C.3     1  LIG1       -0.0531
     12 C          14.5411   -8.4653    3.0708 C.3     1  LIG1       -0.0531
     13 C          14.1099   -7.4726    4.1563 C.3     1  LIG1       -0.0530
     14 C          13.7924   -8.2867    5.4101 C.3     1  LIG1       -0.0522
     15 C          13.3460   -7.4421    6.5995 C.3     1  LIG1       -0.0422
     16 C          14.4025   -6.4362    7.0847 C.3     1  LIG1        0.0095
     17 C          15.6424   -7.1350    7.5024 C.1     1  LIG1       -0.0968
     18 C          16.5666   -7.8179    7.7018 C.1     1  LIG1       -0.0615
     19 C          17.6068   -8.8084    7.8460 C.2     1  LIG1        0.0818
     20 C          18.2943   -8.9283    8.9951 C.2     1  LIG1        0.0205
     21 N          19.2467   -9.9016    9.2419 N.am    1  LIG1       -0.2497
     22 C1*        20.0212   -9.8696   10.5040 C.3     1  LIG1        0.1339
     23 C2*        19.2720   -9.4153   11.7601 C.3     1  LIG1        0.0193
     24 C3*        18.5190  -10.6647   12.2017 C.3     1  LIG1        0.0874
     25 H3*        18.5602  -10.7798   13.2882 H       1  LIG1        0.0621
     26 O3*        17.1405  -10.5705   11.8496 O.3     1  LIG1       -0.3890
     27 C4*        19.2192  -11.8055   11.4674 C.3     1  LIG1        0.1098
     28 H4*        18.6015  -12.2075   10.6537 H       1  LIG1        0.0646
     29 C5*        19.6913  -12.9546   12.3457 C.3     1  LIG1        0.0729
     30 O5*        20.3407  -13.9349   11.5318 O.3     1  LIG1       -0.3924
     31 O4*        20.3873  -11.2061   10.8733 O.3     1  LIG1       -0.3502
     32 C          19.6389  -10.8126    8.2494 C.2     1  LIG1        0.2289
     33 O          20.6058  -11.5692    8.3348 O.2     1  LIG1       -0.2747
     34 C          18.7356  -10.9371    7.0579 C.3     1  LIG1        0.0882
     35 C          17.8756   -9.7611    6.7540 C.2     1  LIG1        0.1813
     36 O          17.3542   -9.6229    5.6537 O.2     1  LIG1       -0.2908
     37 H          23.8427   -2.9900    0.8992 H       1  LIG1        0.0230
     38 H          22.9444   -4.4847    0.5920 H       1  LIG1        0.0230
     39 H          23.0348   -3.8282    2.2361 H       1  LIG1        0.0230
     40 H          21.7084   -2.3777   -0.1114 H       1  LIG1        0.0263
     41 H          21.7003   -1.8523    1.5779 H       1  LIG1        0.0263
     42 H          20.4323   -3.9492    2.1927 H       1  LIG1        0.0265
     43 H          20.5044   -4.4234    0.4969 H       1  LIG1        0.0265
     44 H          19.1494   -2.3833   -0.1126 H       1  LIG1        0.0265
     45 H          19.0977   -1.9127    1.5828 H       1  LIG1        0.0265
     46 H          16.9882   -3.0325    0.9421 H       1  LIG1        0.0265
     47 H          17.8355   -4.0114    2.1291 H       1  LIG1        0.0265
     48 H          18.7995   -5.4168    0.2763 H       1  LIG1        0.0265
     49 H          17.9737   -4.4006   -0.9273 H       1  LIG1        0.0265
     50 H          15.8057   -5.2952   -0.1495 H       1  LIG1        0.0265
     51 H          16.6865   -6.0214    1.2004 H       1  LIG1        0.0265
     52 H          17.8786   -7.5712   -0.4017 H       1  LIG1        0.0265
     53 H          17.0854   -6.7572   -1.7340 H       1  LIG1        0.0265
     54 H          16.0202   -8.8732   -1.3709 H       1  LIG1        0.0265
     55 H          14.8824   -7.5835   -1.0532 H       1  LIG1        0.0265
     56 H          16.3011   -9.3123    1.0496 H       1  LIG1        0.0265
     57 H          14.6477   -9.4975    0.4893 H       1  LIG1        0.0265
     58 H          14.1208   -7.1636    1.3802 H       1  LIG1        0.0265
     59 H          15.7459   -7.1613    2.0827 H       1  LIG1        0.0265
     60 H          15.4239   -8.9978    3.4464 H       1  LIG1        0.0265
     61 H          13.7435   -9.1917    2.9041 H       1  LIG1        0.0265
     62 H          13.2290   -6.8967    3.8461 H       1  LIG1        0.0265
     63 H          14.9108   -6.7464    4.3498 H       1  LIG1        0.0265
     64 H          14.6646   -8.8925    5.6836 H       1  LIG1        0.0266
     65 H          12.9976   -9.0040    5.1720 H       1  LIG1        0.0266
     66 H          13.0886   -8.1238    7.4209 H       1  LIG1        0.0274
     67 H          12.4271   -6.9097    6.3303 H       1  LIG1        0.0274
     68 H          13.9873   -5.8619    7.9177 H       1  LIG1        0.0397
     69 H          14.6224   -5.7148    6.2850 H       1  LIG1        0.0397
     70 H          18.0860   -8.2112    9.7780 H       1  LIG1        0.0799
     71 H1*        20.9325   -9.2854   10.3313 H       1  LIG1        0.0814
     72 H2*1       18.6356   -8.5371   11.6468 H       1  LIG1        0.0333
     73 H2*2       20.0147   -9.1728   12.5307 H       1  LIG1        0.0333
     74 H3*        17.0605  -10.2649   10.9302 H       1  LIG1        0.2099
     75 H5*1       18.8522  -13.4352   12.8550 H       1  LIG1        0.0584
     76 H5*2       20.4220  -12.6164   13.0863 H       1  LIG1        0.0584
     77 H5*        20.9251  -13.4365   10.9231 H       1  LIG1        0.2095
     78 H          18.0793  -11.7991    7.2242 H       1  LIG1        0.0440
     79 H          19.3664  -11.1227    6.1835 H       1  LIG1        0.0440
@<TRIPOS>BOND
     1     1     2    1
     2     2     3    1
     3     3     4    1
     4     4     5    1
     5     5     6    1
     6     6     7    1
     7     7     8    1
     8     8     9    1
     9     9    10    1
    10    10    11    1
    11    11    12    1
    12    12    13    1
    13    13    14    1
    14    14    15    1
    15    15    16    1
    16    16    17    1
    17    17    18    3
    18    18    19    1
    19    19    20    2
    20    20    21    1
    21    21    22    1
    22    22    23    1
    23    23    24    1
    24    24    27    1
    25    27    28    1
    26    27    29    1
    27    29    30    1
    28    27    31    1
    29    22    31    1
    30    21    32   am
    31    32    33    2
    32    32    34    1
    33    34    35    1
    34    19    35    1
    35    35    36    2
    36    24    26    1
    37    24    25    1
    38     1    37    1
    39     1    38    1
    40     1    39    1
    41     2    40    1
    42     2    41    1
    43     3    42    1
    44     3    43    1
    45     4    44    1
    46     4    45    1
    47     5    46    1
    48     5    47    1
    49     6    48    1
    50     6    49    1
    51     7    50    1
    52     7    51    1
    53     8    52    1
    54     8    53    1
    55     9    54    1
    56     9    55    1
    57    10    56    1
    58    10    57    1
    59    11    58    1
    60    11    59    1
    61    12    60    1
    62    12    61    1
    63    13    62    1
    64    13    63    1
    65    14    64    1
    66    14    65    1
    67    15    66    1
    68    15    67    1
    69    16    68    1
    70    16    69    1
    71    20    70    1
    72    22    71    1
    73    23    72    1
    74    23    73    1
    75    26    74    1
    76    29    75    1
    77    29    76    1
    78    30    77    1
    79    34    78    1
    80    34    79    1
