@<TRIPOS>MOLECULE
*****
 75 78 0 0 0
SMALL
GASTEIGER

@<TRIPOS>ATOM
      1 C           2.7104    0.0868   -8.3616 C.3     1  LIG1       -0.0603
      2 C           3.6415   -1.1241   -8.5101 C.3     1  LIG1       -0.0206
      3 C           4.7139   -0.8033   -9.5550 C.3     1  LIG1       -0.0603
      4 C           4.2433   -1.5413   -7.1453 C.3     1  LIG1        0.0576
      5 H           4.7902   -0.6977   -6.7053 H       1  LIG1        0.0596
      6 O           3.1847   -1.8858   -6.2498 O.3     1  LIG1       -0.3915
      7 C           5.1916   -2.7500   -7.2460 C.3     1  LIG1       -0.0264
      8 C           5.7771   -3.1555   -5.8816 C.3     1  LIG1       -0.0478
      9 C           6.7455   -4.3768   -5.9272 C.3     1  LIG1       -0.0405
     10 H           6.1987   -5.2174   -6.3729 H       1  LIG1        0.0301
     11 C           7.9346   -4.0503   -6.8392 C.3     1  LIG1       -0.0621
     12 C           7.1784   -4.7804   -4.4781 C.3     1  LIG1       -0.0328
     13 H           7.6185   -3.8864   -4.0165 H       1  LIG1        0.0309
     14 C           5.9693   -5.1752   -3.6170 C.3     1  LIG1       -0.0492
     15 C           6.5920   -5.7368   -2.3583 C.3     1  LIG1       -0.0492
     16 C           7.8022   -6.5532   -2.8338 C.3     1  LIG1       -0.0320
     17 C           8.9864   -6.5862   -1.8304 C.3     1  LIG1       -0.0307
     18 C           8.5289   -7.0863   -0.4464 C.3     1  LIG1       -0.0311
     19 C           9.4014   -6.6803    0.6984 C.2     1  LIG1       -0.0839
     20 C          10.4515   -5.8493    0.6136 C.2     1  LIG1       -0.0648
     21 C          11.2606   -5.5227    1.8496 C.3     1  LIG1       -0.0051
     22 C          11.5172   -4.0224    1.9871 C.3     1  LIG1        0.0590
     23 H          10.5735   -3.4875    2.1529 H       1  LIG1        0.0596
     24 O          12.3615   -3.7682    3.1065 O.3     1  LIG1       -0.3915
     25 C          12.1962   -3.4867    0.7331 C.3     1  LIG1       -0.0258
     26 C          11.3284   -3.7344   -0.4973 C.3     1  LIG1       -0.0413
     27 C          10.9023   -5.2199   -0.7113 C.3     1  LIG1       -0.0078
     28 C          12.1131   -6.0456   -1.2089 C.3     1  LIG1       -0.0556
     29 C           9.7136   -5.2260   -1.7504 C.3     1  LIG1       -0.0285
     30 C          10.0986   -4.6890   -3.1482 C.3     1  LIG1       -0.0486
     31 C           9.6498   -5.5741   -4.3103 C.3     1  LIG1       -0.0468
     32 C           8.1641   -5.9908   -4.2568 C.3     1  LIG1       -0.0259
     33 C           7.9344   -7.1314   -5.2741 C.3     1  LIG1       -0.0590
     34 H           2.3122    0.3934   -9.3351 H       1  LIG1        0.0233
     35 H           3.2406    0.9421   -7.9291 H       1  LIG1        0.0233
     36 H           1.8525   -0.1439   -7.7226 H       1  LIG1        0.0233
     37 H           3.0273   -1.9517   -8.8890 H       1  LIG1        0.0320
     38 H           5.4324   -0.0701   -9.1734 H       1  LIG1        0.0233
     39 H           4.2645   -0.3932  -10.4661 H       1  LIG1        0.0233
     40 H           5.2629   -1.7023   -9.8513 H       1  LIG1        0.0233
     41 H           2.7608   -1.0601   -5.9613 H       1  LIG1        0.2098
     42 H           6.0051   -2.5004   -7.9296 H       1  LIG1        0.0290
     43 H           4.6492   -3.6090   -7.6592 H       1  LIG1        0.0290
     44 H           4.9373   -3.3814   -5.2184 H       1  LIG1        0.0269
     45 H           6.3015   -2.2953   -5.4452 H       1  LIG1        0.0269
     46 H           7.6072   -3.8500   -7.8636 H       1  LIG1        0.0233
     47 H           8.6347   -4.8801   -6.9277 H       1  LIG1        0.0233
     48 H           8.4823   -3.1732   -6.4794 H       1  LIG1        0.0233
     49 H           5.3557   -5.9332   -4.1171 H       1  LIG1        0.0268
     50 H           5.3275   -4.3267   -3.3640 H       1  LIG1        0.0268
     51 H           5.8741   -6.3555   -1.8096 H       1  LIG1        0.0268
     52 H           6.8833   -4.9124   -1.6996 H       1  LIG1        0.0268
     53 H           7.4533   -7.5914   -2.9343 H       1  LIG1        0.0309
     54 H           9.7035   -7.3279   -2.2097 H       1  LIG1        0.0309
     55 H           8.4703   -8.1817   -0.4743 H       1  LIG1        0.0310
     56 H           7.5206   -6.7356   -0.2057 H       1  LIG1        0.0310
     57 H           9.1281   -7.1104    1.6612 H       1  LIG1        0.0572
     58 H          12.2163   -6.0608    1.8163 H       1  LIG1        0.0335
     59 H          10.7623   -5.8798    2.7602 H       1  LIG1        0.0335
     60 H          11.8756   -4.0457    3.9022 H       1  LIG1        0.2098
     61 H          13.1851   -3.9450    0.6095 H       1  LIG1        0.0290
     62 H          12.3829   -2.4115    0.8448 H       1  LIG1        0.0290
     63 H          11.8640   -3.3604   -1.3783 H       1  LIG1        0.0274
     64 H          10.4319   -3.1069   -0.3986 H       1  LIG1        0.0274
     65 H          12.9108   -6.0913   -0.4588 H       1  LIG1        0.0238
     66 H          12.5656   -5.6216   -2.1096 H       1  LIG1        0.0238
     67 H          11.8328   -7.0800   -1.4357 H       1  LIG1        0.0238
     68 H           8.9762   -4.5110   -1.3563 H       1  LIG1        0.0312
     69 H          11.1767   -4.5377   -3.2490 H       1  LIG1        0.0268
     70 H           9.6722   -3.6851   -3.2649 H       1  LIG1        0.0268
     71 H          10.2818   -6.4729   -4.3157 H       1  LIG1        0.0271
     72 H           9.8839   -5.0557   -5.2432 H       1  LIG1        0.0271
     73 H           8.2312   -6.8570   -6.2883 H       1  LIG1        0.0235
     74 H           6.8838   -7.4394   -5.3035 H       1  LIG1        0.0235
     75 H           8.5251   -8.0151   -5.0025 H       1  LIG1        0.0235
@<TRIPOS>BOND
     1     1     2    1
     2     2     3    1
     3     2     4    1
     4     4     5    1
     5     4     6    1
     6     4     7    1
     7     7     8    1
     8     8     9    1
     9     9    10    1
    10     9    11    1
    11    12    14    1
    12    14    15    1
    13    15    16    1
    14    16    17    1
    15    17    18    1
    16    18    19    1
    17    19    20    2
    18    20    21    1
    19    21    22    1
    20    22    25    1
    21    25    26    1
    22    26    27    1
    23    20    27    1
    24    27    29    1
    25    17    29    1
    26    29    30    1
    27    30    31    1
    28    31    32    1
    29    12    32    1
    30    16    32    1
    31    27    28    1
    32    32    33    1
    33    12    13    1
    34    12     9    1
    35    22    24    1
    36    22    23    1
    37     1    34    1
    38     1    35    1
    39     1    36    1
    40     2    37    1
    41     3    38    1
    42     3    39    1
    43     3    40    1
    44     6    41    1
    45     7    42    1
    46     7    43    1
    47     8    44    1
    48     8    45    1
    49    11    46    1
    50    11    47    1
    51    11    48    1
    52    14    49    1
    53    14    50    1
    54    15    51    1
    55    15    52    1
    56    16    53    1
    57    17    54    1
    58    18    55    1
    59    18    56    1
    60    19    57    1
    61    21    58    1
    62    21    59    1
    63    24    60    1
    64    25    61    1
    65    25    62    1
    66    26    63    1
    67    26    64    1
    68    28    65    1
    69    28    66    1
    70    28    67    1
    71    29    68    1
    72    30    69    1
    73    30    70    1
    74    31    71    1
    75    31    72    1
    76    33    73    1
    77    33    74    1
    78    33    75    1
