@<TRIPOS>MOLECULE
*****
 19 20 0 0 0
SMALL
GASTEIGER

@<TRIPOS>ATOM
      1 C           0.9387   -0.0893   -0.0579 C.3     1  LIG1       -0.0377
      2 C           2.4241   -0.0908   -0.0581 C.ar    1  LIG1       -0.0254
      3 C           3.2490    1.0166   -0.0578 C.ar    1  LIG1        0.0056
      4 N           4.5481    0.5855   -0.0580 N.ar    1  LIG1       -0.3604
      5 H           5.3610    1.1851   -0.0579 H       1  LIG1        0.1653
      6 C           4.5942   -0.7888   -0.0580 C.ar    1  LIG1        0.0467
      7 C           5.6939   -1.6556   -0.0574 C.ar    1  LIG1       -0.0378
      8 C           5.4357   -3.0295   -0.0572 C.ar    1  LIG1       -0.0598
      9 C           4.1299   -3.5141   -0.0581 C.ar    1  LIG1       -0.0611
     10 C           3.0423   -2.6329   -0.0588 C.ar    1  LIG1       -0.0523
     11 C           3.2749   -1.2421   -0.0584 C.ar    1  LIG1        0.0026
     12 H           0.5420    0.9312   -0.0572 H       1  LIG1        0.0278
     13 H           0.5561   -0.6020    0.8304 H       1  LIG1        0.0278
     14 H           0.5557   -0.6010   -0.9465 H       1  LIG1        0.0278
     15 H           3.0204    2.0740   -0.0573 H       1  LIG1        0.0810
     16 H           6.7121   -1.2813   -0.0570 H       1  LIG1        0.0638
     17 H           6.2679   -3.7297   -0.0563 H       1  LIG1        0.0618
     18 H           3.9510   -4.5863   -0.0582 H       1  LIG1        0.0618
     19 H           2.0281   -3.0203   -0.0595 H       1  LIG1        0.0624
@<TRIPOS>BOND
     1     1     2    1
     2     2     3   ar
     3     3     4   ar
     4     4     5    1
     5     4     6   ar
     6     6     7   ar
     7     7     8   ar
     8     8     9   ar
     9     9    10   ar
    10    10    11   ar
    11     2    11   ar
    12     6    11   ar
    13     1    12    1
    14     1    13    1
    15     1    14    1
    16     3    15    1
    17     7    16    1
    18     8    17    1
    19     9    18    1
    20    10    19    1
