@<TRIPOS>MOLECULE
*****
 50 49 0 0 0
SMALL
GASTEIGER

@<TRIPOS>ATOM
      1 C           5.3646    4.4189    9.4062 C.3     1  LIG1       -0.0653
      2 C           6.4897    3.7195    8.6611 C.3     1  LIG1       -0.0559
      3 C           6.1369    3.4836    7.1923 C.3     1  LIG1       -0.0533
      4 C           7.2568    2.8014    6.4050 C.3     1  LIG1       -0.0531
      5 C           7.5513    1.3838    6.8904 C.3     1  LIG1       -0.0531
      6 C           8.7285    0.7365    6.1698 C.3     1  LIG1       -0.0531
      7 C           8.4998    0.5464    4.6722 C.3     1  LIG1       -0.0531
      8 C           9.6820   -0.1387    3.9945 C.3     1  LIG1       -0.0531
      9 C           9.9733   -1.5314    4.5781 C.3     1  LIG1       -0.0529
     10 C          11.1054   -2.1824    3.7974 C.3     1  LIG1       -0.0483
     11 C          11.4457   -3.5964    4.2556 C.3     1  LIG1       -0.0125
     12 C          12.6268   -4.2520    3.5119 C.3     1  LIG1       -0.0309
     13 N          12.4452   -4.4983    1.9957 N.4     1  LIG1        0.2369
     14 C          12.5506   -3.2365    1.1406 C.3     1  LIG1       -0.0418
     15 C          13.6129   -5.3772    1.5223 C.3     1  LIG1       -0.0418
     16 C          11.1436   -5.2411    1.7283 C.3     1  LIG1       -0.0418
     17 H           5.7352    4.8161   10.3563 H       1  LIG1        0.0230
     18 H           4.5554    3.7156    9.6287 H       1  LIG1        0.0230
     19 H           4.9504    5.2488    8.8261 H       1  LIG1        0.0230
     20 H           6.6976    2.7738    9.1717 H       1  LIG1        0.0263
     21 H           7.3993    4.3277    8.7215 H       1  LIG1        0.0263
     22 H           5.9332    4.4508    6.7157 H       1  LIG1        0.0265
     23 H           5.2176    2.8913    7.1134 H       1  LIG1        0.0265
     24 H           8.1686    3.4087    6.4534 H       1  LIG1        0.0265
     25 H           6.9504    2.7716    5.3532 H       1  LIG1        0.0265
     26 H           6.6594    0.7563    6.7751 H       1  LIG1        0.0265
     27 H           7.7990    1.3906    7.9567 H       1  LIG1        0.0265
     28 H           8.8907   -0.2346    6.6486 H       1  LIG1        0.0265
     29 H           9.6385    1.3265    6.3331 H       1  LIG1        0.0265
     30 H           8.3501    1.5171    4.1844 H       1  LIG1        0.0265
     31 H           7.5893   -0.0396    4.5029 H       1  LIG1        0.0265
     32 H          10.5731    0.4971    4.0745 H       1  LIG1        0.0265
     33 H           9.4594   -0.2232    2.9209 H       1  LIG1        0.0265
     34 H           9.0699   -2.1459    4.4930 H       1  LIG1        0.0265
     35 H          10.2512   -1.4727    5.6288 H       1  LIG1        0.0265
     36 H          11.9981   -1.5544    3.8204 H       1  LIG1        0.0267
     37 H          10.7131   -2.2269    2.7860 H       1  LIG1        0.0267
     38 H          10.5561   -4.2327    4.1991 H       1  LIG1        0.0317
     39 H          11.7078   -3.5574    5.3220 H       1  LIG1        0.0317
     40 H          12.7929   -5.2433    3.9597 H       1  LIG1        0.0815
     41 H          13.5475   -3.6694    3.6419 H       1  LIG1        0.0815
     42 H          13.5501   -2.8113    1.2685 H       1  LIG1        0.0778
     43 H          11.8028   -2.5042    1.3974 H       1  LIG1        0.0778
     44 H          12.3792   -3.5173    0.0957 H       1  LIG1        0.0778
     45 H          14.5490   -4.9095    1.8200 H       1  LIG1        0.0778
     46 H          13.5542   -5.4565    0.4239 H       1  LIG1        0.0778
     47 H          13.5082   -6.3713    1.9666 H       1  LIG1        0.0778
     48 H          10.3012   -4.5979    1.9911 H       1  LIG1        0.0778
     49 H          11.1364   -6.1515    2.3304 H       1  LIG1        0.0778
     50 H          11.1066   -5.4858    0.6573 H       1  LIG1        0.0778
@<TRIPOS>BOND
     1     1     2    1
     2     2     3    1
     3     3     4    1
     4     4     5    1
     5     5     6    1
     6     6     7    1
     7     7     8    1
     8     8     9    1
     9     9    10    1
    10    10    11    1
    11    11    12    1
    12    12    13    1
    13    13    14    1
    14    13    15    1
    15    13    16    1
    16     1    17    1
    17     1    18    1
    18     1    19    1
    19     2    20    1
    20     2    21    1
    21     3    22    1
    22     3    23    1
    23     4    24    1
    24     4    25    1
    25     5    26    1
    26     5    27    1
    27     6    28    1
    28     6    29    1
    29     7    30    1
    30     7    31    1
    31     8    32    1
    32     8    33    1
    33     9    34    1
    34     9    35    1
    35    10    36    1
    36    10    37    1
    37    11    38    1
    38    11    39    1
    39    12    40    1
    40    12    41    1
    41    14    42    1
    42    14    43    1
    43    14    44    1
    44    15    45    1
    45    15    46    1
    46    15    47    1
    47    16    48    1
    48    16    49    1
    49    16    50    1
