@<TRIPOS>MOLECULE
*****
 70 72 0 0 0
SMALL
GASTEIGER

@<TRIPOS>ATOM
      1 C           3.7256   -3.1498    2.2545 C.3     1  LIG1       -0.0586
      2 C           2.6839   -3.8906    1.4012 C.3     1  LIG1       -0.0198
      3 C           3.1595   -5.3289    1.1526 C.3     1  LIG1       -0.0586
      4 C           1.2806   -3.8505    2.0116 C.ar    1  LIG1       -0.0233
      5 C           1.1495   -4.3323    3.3350 C.ar    1  LIG1       -0.0565
      6 C          -0.0621   -4.2999    4.0075 C.ar    1  LIG1       -0.0611
      7 C          -1.1763   -3.7718    3.3721 C.ar    1  LIG1       -0.0565
      8 C          -1.1078   -3.2407    2.0586 C.ar    1  LIG1       -0.0233
      9 C          -2.4256   -2.6608    1.5363 C.3     1  LIG1       -0.0198
     10 C          -2.3599   -1.1487    1.3228 C.3     1  LIG1       -0.0586
     11 C          -3.0087   -3.3691    0.3121 C.3     1  LIG1       -0.0586
     12 C           0.1378   -3.2992    1.3552 C.ar    1  LIG1        0.0416
     13 N           0.2636   -2.6741    0.0786 N.am    1  LIG1       -0.2689
     14 C           0.6956   -3.3348   -1.0712 C.2     1  LIG1        0.3039
     15 O           0.8966   -4.5236   -1.1523 O.2     1  LIG1       -0.2525
     16 N           0.8986   -2.4581   -2.1282 N.am    1  LIG1       -0.2983
     17 C           1.3640   -2.9166   -3.4580 C.3     1  LIG1        0.0227
     18 C           2.1945   -1.8731   -4.2965 C.3     1  LIG1        0.0113
     19 C           2.6392   -2.5037   -5.6536 C.ar    1  LIG1       -0.0396
     20 C           1.8550   -2.4202   -6.8196 C.ar    1  LIG1       -0.0562
     21 C           2.2438   -3.0232   -8.0364 C.ar    1  LIG1       -0.0404
     22 C           3.4260   -3.7600   -8.1478 C.ar    1  LIG1        0.0292
     23 N           3.7515   -4.4124   -9.3491 N.pl3   1  LIG1       -0.3360
     24 C           4.5267   -5.6504   -9.2466 C.3     1  LIG1        0.0004
     25 C           4.1581   -3.5056  -10.4231 C.3     1  LIG1        0.0004
     26 C           4.2259   -3.8128   -7.0039 C.ar    1  LIG1       -0.0404
     27 C           3.8418   -3.2149   -5.7878 C.ar    1  LIG1       -0.0562
     28 C           1.3889   -0.5619   -4.5054 C.3     1  LIG1       -0.0419
     29 C           2.4380    0.5034   -4.7858 C.3     1  LIG1       -0.0522
     30 C           3.6158    0.1268   -3.9012 C.3     1  LIG1       -0.0522
     31 C           3.4012   -1.3288   -3.4758 C.3     1  LIG1       -0.0419
     32 H           4.6795   -3.1007    1.7166 H       1  LIG1        0.0235
     33 H           3.9210   -3.6504    3.2090 H       1  LIG1        0.0235
     34 H           3.4079   -2.1237    2.4660 H       1  LIG1        0.0235
     35 H           2.6892   -3.3738    0.4403 H       1  LIG1        0.0344
     36 H           3.0926   -5.9579    2.0475 H       1  LIG1        0.0235
     37 H           4.2051   -5.3355    0.8251 H       1  LIG1        0.0235
     38 H           2.5652   -5.8092    0.3700 H       1  LIG1        0.0235
     39 H           2.0129   -4.7289    3.8661 H       1  LIG1        0.0621
     40 H          -0.1329   -4.6778    5.0248 H       1  LIG1        0.0618
     41 H          -2.1145   -3.7693    3.9271 H       1  LIG1        0.0621
     42 H          -3.1821   -2.8037    2.3239 H       1  LIG1        0.0344
     43 H          -1.7622   -0.8679    0.4557 H       1  LIG1        0.0235
     44 H          -1.9375   -0.6475    2.1992 H       1  LIG1        0.0235
     45 H          -3.3617   -0.7447    1.1440 H       1  LIG1        0.0235
     46 H          -2.4004   -3.2198   -0.5828 H       1  LIG1        0.0235
     47 H          -4.0103   -2.9743    0.0967 H       1  LIG1        0.0235
     48 H          -3.1154   -4.4462    0.4816 H       1  LIG1        0.0235
     49 H          -0.4016   -1.9633   -0.1313 H       1  LIG1        0.1564
     50 H           0.4885   -1.5501   -2.0466 H       1  LIG1        0.1503
     51 H           0.4604   -3.1999   -4.0130 H       1  LIG1        0.0471
     52 H           1.9517   -3.8294   -3.3134 H       1  LIG1        0.0471
     53 H           0.9060   -1.8938   -6.8278 H       1  LIG1        0.0621
     54 H           1.5770   -2.9408   -8.8925 H       1  LIG1        0.0636
     55 H           3.9152   -6.4374   -8.7916 H       1  LIG1        0.0428
     56 H           5.4505   -5.5348   -8.6729 H       1  LIG1        0.0428
     57 H           4.8237   -6.0120  -10.2377 H       1  LIG1        0.0428
     58 H           3.3120   -2.9091  -10.7801 H       1  LIG1        0.0428
     59 H           4.5261   -4.0709  -11.2888 H       1  LIG1        0.0428
     60 H           4.9643   -2.8377  -10.1011 H       1  LIG1        0.0428
     61 H           5.1892   -4.3117   -7.0261 H       1  LIG1        0.0636
     62 H           4.5307   -3.3422   -4.9583 H       1  LIG1        0.0621
     63 H           0.8510   -0.2742   -3.5972 H       1  LIG1        0.0274
     64 H           0.6364   -0.5991   -5.2953 H       1  LIG1        0.0274
     65 H           2.0636    1.5062   -4.5572 H       1  LIG1        0.0266
     66 H           2.7347    0.4944   -5.8408 H       1  LIG1        0.0266
     67 H           3.6477    0.7657   -3.0113 H       1  LIG1        0.0266
     68 H           4.5629    0.2626   -4.4337 H       1  LIG1        0.0266
     69 H           3.1814   -1.3399   -2.4022 H       1  LIG1        0.0274
     70 H           4.3314   -1.8914   -3.5776 H       1  LIG1        0.0274
@<TRIPOS>BOND
     1     1     2    1
     2     2     3    1
     3     2     4    1
     4     4     5   ar
     5     5     6   ar
     6     6     7   ar
     7     7     8   ar
     8     8     9    1
     9     9    10    1
    10     9    11    1
    11     8    12   ar
    12     4    12   ar
    13    12    13    1
    14    13    14   am
    15    14    15    2
    16    14    16   am
    17    16    17    1
    18    17    18    1
    19    18    19    1
    20    19    20   ar
    21    20    21   ar
    22    21    22   ar
    23    22    23    1
    24    23    24    1
    25    23    25    1
    26    22    26   ar
    27    26    27   ar
    28    19    27   ar
    29    18    28    1
    30    28    29    1
    31    29    30    1
    32    30    31    1
    33    18    31    1
    34     1    32    1
    35     1    33    1
    36     1    34    1
    37     2    35    1
    38     3    36    1
    39     3    37    1
    40     3    38    1
    41     5    39    1
    42     6    40    1
    43     7    41    1
    44     9    42    1
    45    10    43    1
    46    10    44    1
    47    10    45    1
    48    11    46    1
    49    11    47    1
    50    11    48    1
    51    13    49    1
    52    16    50    1
    53    17    51    1
    54    17    52    1
    55    20    53    1
    56    21    54    1
    57    24    55    1
    58    24    56    1
    59    24    57    1
    60    25    58    1
    61    25    59    1
    62    25    60    1
    63    26    61    1
    64    27    62    1
    65    28    63    1
    66    28    64    1
    67    29    65    1
    68    29    66    1
    69    30    67    1
    70    30    68    1
    71    31    69    1
    72    31    70    1
