@<TRIPOS>MOLECULE
*****
 76 79 0 0 0
SMALL
GASTEIGER

@<TRIPOS>ATOM
      1 C           6.2233   -5.8984   -9.3075 C.3     1  LIG1       -0.0573
      2 C           5.7179   -5.1149  -10.3226 C.3     1  LIG1       -0.0054
      3 C           6.9401   -5.2655  -11.2384 C.3     1  LIG1       -0.0573
      4 C           4.4360   -5.8350  -10.5393 C.ar    1  LIG1        0.0345
      5 C           4.1630   -6.8344  -11.4410 C.ar    1  LIG1        0.0662
      6 C           4.1441   -5.9137  -12.6102 C.ar    1  LIG1        0.0200
      7 C           3.6378   -4.6452  -12.0819 C.ar    1  LIG1        0.0578
      8 N           3.3855   -4.9998  -10.7511 N.ar    1  LIG1       -0.3422
      9 C           2.3916   -4.6488   -9.7475 C.3     1  LIG1        0.0259
     10 C           2.7282   -3.8175   -8.4612 C.3     1  LIG1       -0.0087
     11 C           3.3834   -4.4720   -7.2062 C.3     1  LIG1        0.0592
     12 H           3.4461   -3.7629   -6.3894 H       1  LIG1        0.0594
     13 C           4.7916   -4.9151   -7.4575 C.3     1  LIG1       -0.0002
     14 C           5.7523   -5.6051   -6.4067 C.3     1  LIG1        0.0676
     15 H           5.8617   -4.8762   -5.6166 H       1  LIG1        0.0599
     16 C           7.4426   -5.9370   -6.7160 C.3     1  LIG1        0.0708
     17 C           7.8542   -6.7497   -7.8463 C.2     1  LIG1        0.3072
     18 O           6.9414   -7.7149   -8.1701 O.2     1  LIG1       -0.2509
     19 O           8.7970   -6.4271   -8.8526 O.3     1  LIG1       -0.4806
     20 O           4.9188   -6.6202   -5.8186 O.3     1  LIG1       -0.3912
     21 O           2.5803   -5.5891   -6.8278 O.3     1  LIG1       -0.3916
     22 C           3.5865   -3.2288  -12.5263 C.ar    1  LIG1       -0.0007
     23 C           4.5925   -2.6505  -13.3161 C.ar    1  LIG1       -0.0499
     24 C           4.4505   -1.3815  -13.8871 C.ar    1  LIG1       -0.0258
     25 C           3.3797   -0.5926  -13.5165 C.ar    1  LIG1        0.1234
     26 C           2.4564   -1.0607  -12.6021 C.ar    1  LIG1       -0.0258
     27 C           2.5500   -2.3731  -12.1355 C.ar    1  LIG1       -0.0499
     28 F           3.2527    0.6411  -14.0166 F       1  LIG1       -0.2055
     29 C           4.8544   -6.1468  -13.9017 C.ar    1  LIG1       -0.0151
     30 C           5.5774   -7.3303  -14.1072 C.ar    1  LIG1       -0.0539
     31 C           6.2984   -7.5592  -15.2908 C.ar    1  LIG1       -0.0612
     32 C           6.4463   -6.5527  -16.2368 C.ar    1  LIG1       -0.0617
     33 C           5.8316   -5.3370  -16.0149 C.ar    1  LIG1       -0.0612
     34 C           4.9730   -5.1915  -14.9181 C.ar    1  LIG1       -0.0539
     35 C           4.0851   -8.3113  -11.2294 C.2     1  LIG1        0.2506
     36 O           3.3579   -8.9561  -12.0006 O.2     1  LIG1       -0.2698
     37 N           4.6107   -9.0696  -10.1311 N.am    1  LIG1       -0.2814
     38 C           5.7815   -9.1147   -9.2382 C.ar    1  LIG1        0.0337
     39 C           5.5605   -9.2042   -7.7623 C.ar    1  LIG1       -0.0405
     40 C           6.7220   -9.2968   -6.8084 C.ar    1  LIG1       -0.0600
     41 C           8.1123   -9.3385   -7.3495 C.ar    1  LIG1       -0.0616
     42 C           8.3232   -9.2867   -8.8393 C.ar    1  LIG1       -0.0600
     43 C           7.1421   -9.1499   -9.7608 C.ar    1  LIG1       -0.0405
     44 H           6.9857   -5.2242   -8.8726 H       1  LIG1        0.0236
     45 H           6.4543   -6.8196   -9.8089 H       1  LIG1        0.0236
     46 H           5.6719   -6.4008   -8.5129 H       1  LIG1        0.0236
     47 H           5.6051   -4.0883   -9.9631 H       1  LIG1        0.0358
     48 H           6.8822   -4.5504  -12.0322 H       1  LIG1        0.0236
     49 H           7.0821   -6.2995  -11.5982 H       1  LIG1        0.0236
     50 H           7.8780   -5.0444  -10.6871 H       1  LIG1        0.0236
     51 H           1.8994   -5.5864   -9.4698 H       1  LIG1        0.0493
     52 H           1.6153   -4.1080  -10.2838 H       1  LIG1        0.0493
     53 H           1.7469   -3.5077   -8.0753 H       1  LIG1        0.0307
     54 H           3.2675   -2.9041   -8.7328 H       1  LIG1        0.0307
     55 H           5.3485   -4.1070   -7.9240 H       1  LIG1        0.0315
     56 H           4.3799   -5.6712   -8.1296 H       1  LIG1        0.0315
     57 H           7.8039   -6.5209   -5.8538 H       1  LIG1        0.0403
     58 H           7.9205   -4.9877   -6.9130 H       1  LIG1        0.0403
     59 H           8.4359   -6.9544   -9.6276 H       1  LIG1        0.2951
     60 H           5.4413   -7.3795   -5.5388 H       1  LIG1        0.2098
     61 H           3.1488   -6.1443   -6.2463 H       1  LIG1        0.2098
     62 H           5.5006   -3.1963  -13.5554 H       1  LIG1        0.0625
     63 H           5.1742   -1.0156  -14.6074 H       1  LIG1        0.0646
     64 H           1.6492   -0.4222  -12.2633 H       1  LIG1        0.0646
     65 H           1.7659   -2.6831  -11.4646 H       1  LIG1        0.0625
     66 H           5.6070   -8.1076  -13.3520 H       1  LIG1        0.0624
     67 H           6.7640   -8.5253  -15.4584 H       1  LIG1        0.0618
     68 H           7.0286   -6.7122  -17.1391 H       1  LIG1        0.0618
     69 H           5.9874   -4.5017  -16.6941 H       1  LIG1        0.0618
     70 H           4.4094   -4.2749  -14.9024 H       1  LIG1        0.0624
     71 H           4.4671  -10.0411  -10.4242 H       1  LIG1        0.1551
     72 H           4.5431   -8.8590   -7.3836 H       1  LIG1        0.0636
     73 H           6.6003   -8.8955   -5.7547 H       1  LIG1        0.0618
     74 H           8.9067   -8.7731   -6.7267 H       1  LIG1        0.0618
     75 H           9.3074   -8.8106   -9.1806 H       1  LIG1        0.0618
     76 H           7.2786   -8.6324  -10.7634 H       1  LIG1        0.0636
@<TRIPOS>BOND
     1     1     2    1
     2     2     3    1
     3     2     4    1
     4     4     5   ar
     5     5     6   ar
     6     6     7   ar
     7     7     8   ar
     8     4     8   ar
     9     8     9    1
    10     9    10    1
    11    11    13    1
    12    14    16    1
    13    16    17    1
    14    17    18    2
    15    17    19    1
    16    14    20    1
    17    11    21    1
    18     7    22    1
    19    22    23   ar
    20    23    24   ar
    21    24    25   ar
    22    25    26   ar
    23    26    27   ar
    24    22    27   ar
    25    25    28    1
    26     6    29    1
    27    29    30   ar
    28    30    31   ar
    29    31    32   ar
    30    32    33   ar
    31    33    34   ar
    32    29    34   ar
    33     5    35    1
    34    35    36    2
    35    35    37   am
    36    37    38    1
    37    38    39   ar
    38    39    40   ar
    39    40    41   ar
    40    41    42   ar
    41    42    43   ar
    42    38    43   ar
    43    11    12    1
    44    11    10    1
    45    14    15    1
    46    14    13    1
    47     1    44    1
    48     1    45    1
    49     1    46    1
    50     2    47    1
    51     3    48    1
    52     3    49    1
    53     3    50    1
    54     9    51    1
    55     9    52    1
    56    10    53    1
    57    10    54    1
    58    13    55    1
    59    13    56    1
    60    16    57    1
    61    16    58    1
    62    19    59    1
    63    20    60    1
    64    21    61    1
    65    23    62    1
    66    24    63    1
    67    26    64    1
    68    27    65    1
    69    30    66    1
    70    31    67    1
    71    32    68    1
    72    33    69    1
    73    34    70    1
    74    37    71    1
    75    39    72    1
    76    40    73    1
    77    41    74    1
    78    42    75    1
    79    43    76    1
