@<TRIPOS>MOLECULE
*****
 29 30 0 0 0
SMALL
GASTEIGER

@<TRIPOS>ATOM
      1 C           0.8503   -0.0817    0.1317 C.3     1  LIG1       -0.0590
      2 C           2.3956   -0.0696    0.1446 C.3     1  LIG1       -0.0242
      3 C           3.0482   -1.1624   -0.7393 C.3     1  LIG1       -0.0329
      4 C           2.5727   -0.8005   -2.1650 C.3     1  LIG1       -0.0490
      5 C           2.5448    0.7387   -2.1393 C.3     1  LIG1       -0.0445
      6 C           3.0516    1.0706   -0.7034 C.3     1  LIG1       -0.0007
      7 C           4.5710    0.7127   -0.7296 C.3     1  LIG1        0.0614
      8 C           4.5593   -0.8262   -0.6709 C.3     1  LIG1       -0.0230
      9 O           5.3402    1.2766    0.3176 O.3     1  LIG1       -0.3912
     10 C           2.7419    2.4960   -0.2867 C.3     1  LIG1       -0.0567
     11 C           2.7936   -0.1528    1.6304 C.3     1  LIG1       -0.0590
     12 H           0.3989   -0.0228   -0.8605 H       1  LIG1        0.0235
     13 H           0.4546    0.7622    0.7084 H       1  LIG1        0.0235
     14 H           0.4716   -1.0035    0.5890 H       1  LIG1        0.0235
     15 H           2.8249   -2.1943   -0.4584 H       1  LIG1        0.0307
     16 H           1.5758   -1.2045   -2.3701 H       1  LIG1        0.0268
     17 H           3.2466   -1.1812   -2.9397 H       1  LIG1        0.0268
     18 H           1.5323    1.1157   -2.3208 H       1  LIG1        0.0272
     19 H           3.1846    1.1646   -2.9202 H       1  LIG1        0.0272
     20 H           5.0402    1.0495   -1.6608 H       1  LIG1        0.0599
     21 H           5.0254   -1.2095    0.2421 H       1  LIG1        0.0293
     22 H           5.1038   -1.2591   -1.5175 H       1  LIG1        0.0293
     23 H           4.8371    1.2488    1.1431 H       1  LIG1        0.2098
     24 H           1.6677    2.7017   -0.3406 H       1  LIG1        0.0236
     25 H           3.2479    3.2107   -0.9446 H       1  LIG1        0.0236
     26 H           3.0654    2.6991    0.7387 H       1  LIG1        0.0236
     27 H           2.2612   -0.9761    2.1223 H       1  LIG1        0.0235
     28 H           2.5273    0.7702    2.1567 H       1  LIG1        0.0235
     29 H           3.8512   -0.3444    1.8127 H       1  LIG1        0.0235
@<TRIPOS>BOND
     1     1     2    1
     2     2     3    1
     3     3     4    1
     4     4     5    1
     5     5     6    1
     6     2     6    1
     7     6     7    1
     8     7     8    1
     9     3     8    1
    10     7     9    1
    11     6    10    1
    12     2    11    1
    13     1    12    1
    14     1    13    1
    15     1    14    1
    16     3    15    1
    17     4    16    1
    18     4    17    1
    19     5    18    1
    20     5    19    1
    21     7    20    1
    22     8    21    1
    23     8    22    1
    24     9    23    1
    25    10    24    1
    26    10    25    1
    27    10    26    1
    28    11    27    1
    29    11    28    1
    30    11    29    1
