WARNING: damped steplength 0.00404671 to 0.000953108
@<TRIPOS>MOLECULE
*****
 116 117 0 0 0
SMALL
GASTEIGER

@<TRIPOS>ATOM
      1 C          25.5923   16.2243   -0.4506 C.3     1  LIG1       -0.0653
      2 C          26.9980   16.7895   -0.5272 C.3     1  LIG1       -0.0559
      3 C          28.0231   16.0540    0.3216 C.3     1  LIG1       -0.0533
      4 C          27.7653   15.9562    1.8084 C.3     1  LIG1       -0.0531
      5 C          26.5109   15.3055    2.4097 C.3     1  LIG1       -0.0531
      6 C          26.8034   15.0788    3.8988 C.3     1  LIG1       -0.0531
      7 C          27.2091   16.3577    4.6422 C.3     1  LIG1       -0.0531
      8 C          27.6642   16.2125    6.0931 C.3     1  LIG1       -0.0531
      9 C          28.9998   15.4716    6.2734 C.3     1  LIG1       -0.0531
     10 C          29.0562   13.9913    5.8764 C.3     1  LIG1       -0.0531
     11 C          27.9750   13.1173    6.5241 C.3     1  LIG1       -0.0531
     12 C          28.2000   13.0324    8.0278 C.3     1  LIG1       -0.0530
     13 C          27.2454   12.1537    8.8440 C.3     1  LIG1       -0.0526
     14 C          25.7340   12.4956    8.8532 C.3     1  LIG1       -0.0430
     15 C          24.9690   11.9658    7.6220 C.3     1  LIG1        0.0449
     16 C          23.4774   12.0767    7.5811 C.2     1  LIG1        0.3072
     17 O          22.8008   11.8796    6.5168 O.2     1  LIG1       -0.2509
     18 O          23.0230   12.1710    8.8327 O.3     1  LIG1       -0.4608
     19 C          21.7240   11.7503    9.4014 C.3     1  LIG1        0.1315
     20 C          21.6297   10.3650   10.1923 C.3     1  LIG1        0.1604
     21 C          20.6037   10.6102   11.3218 C.3     1  LIG1        0.0951
     22 O          21.1436   11.6121   12.1675 O.3     1  LIG1       -0.3236
     23 P          20.3142   12.2225   13.4042 P.3     1  LIG1        0.2128
     24 O          21.1100   13.3326   14.0229 O.2     1  LIG1       -0.5172
     25 O          18.8811   12.3612   12.9760 O.co2   1  LIG1       -0.4373
     26 O          20.3901   10.9631   14.4115 O.3     1  LIG1       -0.3221
     27 C          21.5326   10.1410   14.4482 C.3     1  LIG1        0.0947
     28 C          21.3571    9.1056   15.5552 C.3     1  LIG1       -0.0064
     29 N          20.1078    8.1940   15.3871 N.4     1  LIG1        0.2385
     30 C          18.8626    9.0361   15.4186 C.3     1  LIG1       -0.0417
     31 C          20.0986    7.4369   14.0901 C.3     1  LIG1       -0.0417
     32 C          20.0549    7.2490   16.5597 C.3     1  LIG1       -0.0417
     33 O          21.4662    8.9163    9.7688 O.3     1  LIG1       -0.4555
     34 C          20.5723    8.2803    9.1491 C.2     1  LIG1        0.3075
     35 O          19.9695    8.7553    8.1041 O.2     1  LIG1       -0.2508
     36 C          20.2005    6.9316    9.6647 C.3     1  LIG1        0.0450
     37 C          19.0836    6.8412   10.7546 C.3     1  LIG1       -0.0429
     38 C          17.5982    7.0494   10.3653 C.3     1  LIG1       -0.0511
     39 C          17.2266    8.3874    9.7122 C.3     1  LIG1       -0.0375
     40 C          15.7153    8.6562    9.4918 C.3     1  LIG1        0.0092
     41 N          14.8223    8.5703   10.6501 N.pl3   1  LIG1       -0.3421
     42 C          15.1359    9.0397   11.9110 C.ar    1  LIG1        0.0588
     43 C          16.0692   10.0558   12.2014 C.ar    1  LIG1       -0.0320
     44 C          16.4324   10.4465   13.5231 C.ar    1  LIG1        0.0238
     45 C          15.9324    9.8104   14.6705 C.ar    1  LIG1        0.3482
     46 N          16.2269   10.1814   16.0292 N.4     1  LIG1        0.2616
     47 O          16.9448   11.1324   16.2418 O.2     1  LIG1        0.0828
     48 O          15.9074    9.3500   17.1023 O.2     1  LIG1       -0.2384
     49 C          15.0055    8.8138   14.4088 C.ar    1  LIG1        0.2165
     50 N          14.4333    7.9690   15.2773 N.ar    1  LIG1       -0.0418
     51 O          13.3560    7.4299   14.5752 O.2     1  LIG1       -0.2413
     52 N          13.4265    7.7237   13.2194 N.ar    1  LIG1       -0.0468
     53 C          14.5164    8.5205   13.0813 C.ar    1  LIG1        0.1617
     54 H          25.0181   16.5014   -1.3384 H       1  LIG1        0.0230
     55 H          25.0538   16.6328    0.4091 H       1  LIG1        0.0230
     56 H          25.6005   15.1324   -0.3790 H       1  LIG1        0.0230
     57 H          26.9819   17.8552   -0.2695 H       1  LIG1        0.0263
     58 H          27.3436   16.7216   -1.5660 H       1  LIG1        0.0263
     59 H          28.9850   16.5924    0.2366 H       1  LIG1        0.0265
     60 H          28.2114   15.0586   -0.0913 H       1  LIG1        0.0265
     61 H          27.8426   16.9769    2.1927 H       1  LIG1        0.0265
     62 H          28.6307   15.3971    2.1917 H       1  LIG1        0.0265
     63 H          26.3005   14.3353    1.9396 H       1  LIG1        0.0265
     64 H          25.6058   15.9131    2.3200 H       1  LIG1        0.0265
     65 H          27.6322   14.3868    3.8610 H       1  LIG1        0.0265
     66 H          25.9803   14.5553    4.4083 H       1  LIG1        0.0265
     67 H          26.3721   17.0637    4.5849 H       1  LIG1        0.0265
     68 H          28.0506   16.8479    4.1448 H       1  LIG1        0.0265
     69 H          26.8702   15.7979    6.7230 H       1  LIG1        0.0265
     70 H          27.8334   17.2360    6.4635 H       1  LIG1        0.0265
     71 H          29.3026   15.5652    7.3235 H       1  LIG1        0.0265
     72 H          29.7701   16.0037    5.7026 H       1  LIG1        0.0265
     73 H          30.0499   13.5954    6.1148 H       1  LIG1        0.0265
     74 H          29.0334   13.8847    4.7943 H       1  LIG1        0.0265
     75 H          28.0091   12.1161    6.0768 H       1  LIG1        0.0265
     76 H          26.9893   13.5310    6.3079 H       1  LIG1        0.0265
     77 H          28.1903   14.0375    8.4602 H       1  LIG1        0.0265
     78 H          29.2222   12.6535    8.1773 H       1  LIG1        0.0265
     79 H          27.6034   12.2483    9.8792 H       1  LIG1        0.0265
     80 H          27.3915   11.1001    8.5791 H       1  LIG1        0.0265
     81 H          25.5839   13.5740    9.0083 H       1  LIG1        0.0270
     82 H          25.3158   12.0091    9.7487 H       1  LIG1        0.0270
     83 H          25.1174   10.8808    7.5934 H       1  LIG1        0.0377
     84 H          25.3604   12.4212    6.7164 H       1  LIG1        0.0377
     85 H          20.7800   12.2326    9.0448 H       1  LIG1        0.0736
     86 H          21.8664   12.4095   10.2941 H       1  LIG1        0.0736
     87 H          22.6252   10.3161   10.6444 H       1  LIG1        0.0792
     88 H          20.4651    9.6882   11.8837 H       1  LIG1        0.0602
     89 H          19.6154   10.8892   10.9324 H       1  LIG1        0.0602
     90 H          22.4412   10.7343   14.5890 H       1  LIG1        0.0618
     91 H          21.6423    9.6069   13.5035 H       1  LIG1        0.0618
     92 H          21.2399    9.5935   16.5291 H       1  LIG1        0.0838
     93 H          22.2156    8.4292   15.5856 H       1  LIG1        0.0838
     94 H          18.7476    9.5434   14.4606 H       1  LIG1        0.0778
     95 H          18.9285    9.7269   16.2599 H       1  LIG1        0.0778
     96 H          18.0215    8.3481   15.5340 H       1  LIG1        0.0778
     97 H          20.0308    8.1685   13.2907 H       1  LIG1        0.0778
     98 H          19.2105    6.7941   14.0584 H       1  LIG1        0.0778
     99 H          21.0129    6.8494   14.0021 H       1  LIG1        0.0778
    100 H          19.9575    7.8445   17.4724 H       1  LIG1        0.0778
    101 H          20.9806    6.6712   16.5650 H       1  LIG1        0.0778
    102 H          19.1885    6.5901   16.4428 H       1  LIG1        0.0778
    103 H          21.1125    6.4619   10.1339 H       1  LIG1        0.0377
    104 H          19.9386    6.1728    8.8803 H       1  LIG1        0.0377
    105 H          19.3425    7.5358   11.5511 H       1  LIG1        0.0270
    106 H          19.1191    5.8401   11.2216 H       1  LIG1        0.0270
    107 H          17.0156    6.9341   11.2896 H       1  LIG1        0.0266
    108 H          17.2860    6.2276    9.7138 H       1  LIG1        0.0266
    109 H          17.6834    8.4165    8.7179 H       1  LIG1        0.0280
    110 H          17.6855    9.2109   10.2649 H       1  LIG1        0.0280
    111 H          15.3434    7.9201    8.7666 H       1  LIG1        0.0461
    112 H          15.5809    9.6406    9.0280 H       1  LIG1        0.0461
    113 H          13.8721    8.8730   10.4143 H       1  LIG1        0.1461
    114 H          16.5215   10.6213   11.3823 H       1  LIG1        0.0639
    115 H          17.1276   11.2783   13.6302 H       1  LIG1        0.0688
    116 H          15.3302    8.6764   16.7003 H       1  LIG1        0.3886
@<TRIPOS>BOND
     1     1     2    1
     2     2     3    1
     3     3     4    1
     4     4     5    1
     5     5     6    1
     6     6     7    1
     7     7     8    1
     8     8     9    1
     9     9    10    1
    10    10    11    1
    11    11    12    1
    12    12    13    1
    13    13    14    1
    14    14    15    1
    15    15    16    1
    16    16    17    2
    17    16    18    1
    18    18    19    1
    19    19    20    1
    20    20    21    1
    21    21    22    1
    22    22    23    1
    23    23    24    2
    24    23    25    1
    25    23    26    1
    26    26    27    1
    27    27    28    1
    28    28    29    1
    29    29    30    1
    30    29    31    1
    31    29    32    1
    32    20    33    1
    33    33    34    1
    34    34    35    2
    35    34    36    1
    36    36    37    1
    37    37    38    1
    38    38    39    1
    39    39    40    1
    40    40    41    1
    41    41    42    1
    42    42    43   ar
    43    43    44   ar
    44    44    45   ar
    45    45    46    1
    46    46    47    2
    47    46    48    1
    48    45    49   ar
    49    49    50   ar
    50    50    51   ar
    51    51    52   ar
    52    52    53   ar
    53    42    53   ar
    54    49    53   ar
    55     1    54    1
    56     1    55    1
    57     1    56    1
    58     2    57    1
    59     2    58    1
    60     3    59    1
    61     3    60    1
    62     4    61    1
    63     4    62    1
    64     5    63    1
    65     5    64    1
    66     6    65    1
    67     6    66    1
    68     7    67    1
    69     7    68    1
    70     8    69    1
    71     8    70    1
    72     9    71    1
    73     9    72    1
    74    10    73    1
    75    10    74    1
    76    11    75    1
    77    11    76    1
    78    12    77    1
    79    12    78    1
    80    13    79    1
    81    13    80    1
    82    14    81    1
    83    14    82    1
    84    15    83    1
    85    15    84    1
    86    19    85    1
    87    19    86    1
    88    20    87    1
    89    21    88    1
    90    21    89    1
    91    27    90    1
    92    27    91    1
    93    28    92    1
    94    28    93    1
    95    30    94    1
    96    30    95    1
    97    30    96    1
    98    31    97    1
    99    31    98    1
   100    31    99    1
   101    32   100    1
   102    32   101    1
   103    32   102    1
   104    36   103    1
   105    36   104    1
   106    37   105    1
   107    37   106    1
   108    38   107    1
   109    38   108    1
   110    39   109    1
   111    39   110    1
   112    40   111    1
   113    40   112    1
   114    41   113    1
   115    43   114    1
   116    44   115    1
   117    48   116    1
