@<TRIPOS>MOLECULE
*****
 74 77 0 0 0
SMALL
GASTEIGER

@<TRIPOS>ATOM
      1 C           0.8036    1.0448   -0.4071 C.3     1  LIG1       -0.0394
      2 C           2.0490    0.3639    0.0933 C.ar    1  LIG1       -0.0450
      3 C           3.1062    1.2265    0.4509 C.ar    1  LIG1       -0.0337
      4 C           4.3635    0.7762    0.8735 C.ar    1  LIG1        0.0760
      5 C           4.5753   -0.6062    0.8763 C.ar    1  LIG1        0.1423
      6 C           3.4809   -1.4661    0.6619 C.ar    1  LIG1       -0.0144
      7 C           2.2047   -1.0258    0.2704 C.ar    1  LIG1       -0.0377
      8 C           1.0618   -2.0409    0.1048 C.3     1  LIG1       -0.0132
      9 C           0.9650   -2.7006   -1.2843 C.3     1  LIG1       -0.0336
     10 C           1.8822   -3.9123   -1.4450 C.3     1  LIG1       -0.0036
     11 N           1.5427   -4.9368   -0.4590 N.3     1  LIG1       -0.3159
     12 C           1.7644   -4.4445    0.8962 C.3     1  LIG1       -0.0036
     13 C           0.9985   -3.1452    1.1983 C.3     1  LIG1       -0.0336
     14 O           5.8425   -1.0918    1.1266 O.3     1  LIG1       -0.4875
     15 C           6.1614   -2.3516    0.4912 C.3     1  LIG1        0.0947
     16 C           7.3958   -2.1727   -0.3840 C.3     1  LIG1       -0.0281
     17 C           6.3887   -3.4176    1.5604 C.3     1  LIG1       -0.0281
     18 N           5.3365    1.7164    1.2547 N.pl3   1  LIG1       -0.2806
     19 C           5.1345    2.9765    1.8339 C.ar    1  LIG1        0.2213
     20 N           6.0510    3.9251    1.5881 N.ar    1  LIG1       -0.2211
     21 C           5.8210    5.1463    2.1190 C.ar    1  LIG1        0.0528
     22 C           4.7683    5.4355    2.9554 C.ar    1  LIG1        0.0991
     23 C           3.8790    4.3987    3.2018 C.ar    1  LIG1        0.1465
     24 N           4.0536    3.1930    2.6146 N.ar    1  LIG1       -0.1977
     25 N           2.7830    4.6318    4.0719 N.pl3   1  LIG1       -0.2967
     26 C           1.7160    3.8110    4.4823 C.ar    1  LIG1        0.0575
     27 C           1.9124    2.4298    4.6309 C.ar    1  LIG1       -0.0386
     28 C           0.8798    1.5736    5.0255 C.ar    1  LIG1       -0.0599
     29 C          -0.3836    2.0829    5.2913 C.ar    1  LIG1       -0.0598
     30 C          -0.6243    3.4480    5.1320 C.ar    1  LIG1       -0.0350
     31 C           0.4096    4.3001    4.7302 C.ar    1  LIG1        0.1095
     32 S          -0.0777    5.9910    4.3497 S.O2    1  LIG1        0.0010
     33 O           1.1364    6.7384    3.9965 O.2     1  LIG1       -0.1690
     34 O          -1.2234    5.9203    3.4214 O.2     1  LIG1       -0.1690
     35 C          -0.6436    6.6789    5.9054 C.3     1  LIG1        0.0764
     36 C           0.4368    6.6681    6.9738 C.3     1  LIG1       -0.0427
     37 C          -1.1530    8.1120    5.7156 C.3     1  LIG1       -0.0427
     38 CL          4.6107    7.0016    3.6513 Cl      1  LIG1       -0.0784
     39 H           1.0099    2.0976   -0.6497 H       1  LIG1        0.0278
     40 H           0.0235    1.0394    0.3572 H       1  LIG1        0.0278
     41 H           0.4478    0.5863   -1.3329 H       1  LIG1        0.0278
     42 H           2.9473    2.3023    0.3738 H       1  LIG1        0.0640
     43 H           3.6299   -2.5207    0.8282 H       1  LIG1        0.0658
     44 H           0.1414   -1.4562    0.2384 H       1  LIG1        0.0350
     45 H           1.1417   -1.9803   -2.0896 H       1  LIG1        0.0283
     46 H          -0.0689   -3.0570   -1.4126 H       1  LIG1        0.0283
     47 H           2.9374   -3.6313   -1.3598 H       1  LIG1        0.0424
     48 H           1.7473   -4.3387   -2.4458 H       1  LIG1        0.0424
     49 H           2.1168   -5.7661   -0.6170 H       1  LIG1        0.1219
     50 H           2.8387   -4.3364    1.0663 H       1  LIG1        0.0424
     51 H           1.4395   -5.2162    1.6045 H       1  LIG1        0.0424
     52 H           1.3209   -2.7505    2.1689 H       1  LIG1        0.0283
     53 H          -0.0578   -3.4236    1.3174 H       1  LIG1        0.0283
     54 H           5.3786   -2.7010   -0.1909 H       1  LIG1        0.0727
     55 H           8.2716   -1.8858    0.2044 H       1  LIG1        0.0265
     56 H           7.2224   -1.3808   -1.1204 H       1  LIG1        0.0265
     57 H           7.6226   -3.0984   -0.9252 H       1  LIG1        0.0265
     58 H           7.2462   -3.1703    2.1949 H       1  LIG1        0.0265
     59 H           6.5667   -4.3983    1.1056 H       1  LIG1        0.0265
     60 H           5.5183   -3.4999    2.2201 H       1  LIG1        0.0265
     61 H           6.2734    1.3703    1.3963 H       1  LIG1        0.1551
     62 H           6.5400    5.9131    1.8434 H       1  LIG1        0.0847
     63 H           2.7151    5.6090    4.3651 H       1  LIG1        0.1537
     64 H           2.8957    1.9960    4.4581 H       1  LIG1        0.0637
     65 H           1.0738    0.5074    5.1158 H       1  LIG1        0.0618
     66 H          -1.1861    1.4150    5.5940 H       1  LIG1        0.0618
     67 H          -1.6280    3.8235    5.3079 H       1  LIG1        0.0637
     68 H          -1.4886    6.0534    6.2112 H       1  LIG1        0.0534
     69 H           1.1989    7.4304    6.7727 H       1  LIG1        0.0248
     70 H           0.9453    5.7028    7.0390 H       1  LIG1        0.0248
     71 H          -0.0031    6.8855    7.9508 H       1  LIG1        0.0248
     72 H          -0.3354    8.7967    5.4610 H       1  LIG1        0.0248
     73 H          -1.6115    8.4742    6.6429 H       1  LIG1        0.0248
     74 H          -1.9018    8.1825    4.9208 H       1  LIG1        0.0248
@<TRIPOS>BOND
     1     1     2    1
     2     2     3   ar
     3     3     4   ar
     4     4     5   ar
     5     5     6   ar
     6     6     7   ar
     7     2     7   ar
     8     7     8    1
     9     8     9    1
    10     9    10    1
    11    10    11    1
    12    11    12    1
    13    12    13    1
    14     8    13    1
    15     5    14    1
    16    14    15    1
    17    15    16    1
    18    15    17    1
    19     4    18    1
    20    18    19    1
    21    19    20   ar
    22    20    21   ar
    23    21    22   ar
    24    22    23   ar
    25    23    24   ar
    26    19    24   ar
    27    23    25    1
    28    25    26    1
    29    26    27   ar
    30    27    28   ar
    31    28    29   ar
    32    29    30   ar
    33    30    31   ar
    34    26    31   ar
    35    31    32    1
    36    32    33    2
    37    32    34    2
    38    32    35    1
    39    35    36    1
    40    35    37    1
    41    22    38    1
    42     1    39    1
    43     1    40    1
    44     1    41    1
    45     3    42    1
    46     6    43    1
    47     8    44    1
    48     9    45    1
    49     9    46    1
    50    10    47    1
    51    10    48    1
    52    11    49    1
    53    12    50    1
    54    12    51    1
    55    13    52    1
    56    13    53    1
    57    15    54    1
    58    16    55    1
    59    16    56    1
    60    16    57    1
    61    17    58    1
    62    17    59    1
    63    17    60    1
    64    18    61    1
    65    21    62    1
    66    25    63    1
    67    27    64    1
    68    28    65    1
    69    29    66    1
    70    30    67    1
    71    35    68    1
    72    36    69    1
    73    36    70    1
    74    36    71    1
    75    37    72    1
    76    37    73    1
    77    37    74    1
