@<TRIPOS>MOLECULE
*****
 74 77 0 0 0
SMALL
GASTEIGER

@<TRIPOS>ATOM
      1 C           8.7453    6.0087    5.2907 C.3     1  LIG1       -0.0627
      2 C           8.2424    4.5911    5.5829 C.3     1  LIG1       -0.0467
      3 C           7.3764    4.6318    6.8425 C.3     1  LIG1       -0.0627
      4 C           7.5182    4.0169    4.3490 C.3     1  LIG1       -0.0507
      5 C           6.9322    2.6037    4.4993 C.3     1  LIG1       -0.0526
      6 C           8.0004    1.5231    4.7451 C.3     1  LIG1       -0.0502
      7 C           7.4328    0.0928    4.8774 C.3     1  LIG1       -0.0405
      8 H           6.6142    0.1581    5.6135 H       1  LIG1        0.0301
      9 C           6.7242   -0.3250    3.5811 C.3     1  LIG1       -0.0621
     10 C           8.4322   -0.9272    5.5348 C.3     1  LIG1       -0.0328
     11 C           7.8365   -2.3428    5.6528 C.3     1  LIG1       -0.0492
     12 C           9.0160   -3.2470    5.9315 C.3     1  LIG1       -0.0492
     13 C          10.1594   -2.7076    5.0563 C.3     1  LIG1       -0.0320
     14 C          10.2889   -3.2134    3.5701 C.3     1  LIG1       -0.0307
     15 C          10.0583   -4.7272    3.4116 C.3     1  LIG1       -0.0311
     16 C           9.3164   -5.1592    2.1845 C.2     1  LIG1       -0.0839
     17 C           8.9797   -4.3760    1.1608 C.2     1  LIG1       -0.0648
     18 C           8.2935   -4.9754   -0.0576 C.3     1  LIG1       -0.0051
     19 C           7.1577   -4.1067   -0.6014 C.3     1  LIG1        0.0590
     20 O           6.0383   -4.1253    0.2879 O.3     1  LIG1       -0.3915
     21 C           7.6237   -2.6733   -0.8299 C.3     1  LIG1       -0.0258
     22 C           8.1960   -2.0634    0.4472 C.3     1  LIG1       -0.0413
     23 C           9.3362   -2.8879    1.1197 C.3     1  LIG1       -0.0078
     24 C          10.6296   -2.7561    0.2845 C.3     1  LIG1       -0.0556
     25 C           9.5031   -2.3261    2.5829 C.3     1  LIG1       -0.0285
     26 C          10.0657   -0.8873    2.6120 C.3     1  LIG1       -0.0486
     27 C          10.5833   -0.4437    3.9712 C.3     1  LIG1       -0.0468
     28 C           9.9706   -1.1478    5.1819 C.3     1  LIG1       -0.0259
     29 C          10.8174   -0.6900    6.4110 C.3     1  LIG1       -0.0590
     30 H           9.3689    6.3670    6.1175 H       1  LIG1        0.0232
     31 H           7.9123    6.7107    5.1724 H       1  LIG1        0.0232
     32 H           9.3511    6.0374    4.3800 H       1  LIG1        0.0232
     33 H           9.1213    3.9706    5.7914 H       1  LIG1        0.0295
     34 H           6.4338    5.1607    6.6651 H       1  LIG1        0.0232
     35 H           7.9033    5.1561    7.6487 H       1  LIG1        0.0232
     36 H           7.1477    3.6262    7.2065 H       1  LIG1        0.0232
     37 H           8.2216    4.0060    3.5050 H       1  LIG1        0.0268
     38 H           6.7061    4.6943    4.0538 H       1  LIG1        0.0268
     39 H           6.4013    2.3803    3.5651 H       1  LIG1        0.0265
     40 H           6.1779    2.5867    5.2931 H       1  LIG1        0.0265
     41 H           8.5641    1.7648    5.6508 H       1  LIG1        0.0268
     42 H           8.6904    1.5591    3.8991 H       1  LIG1        0.0268
     43 H           5.7756    0.2150    3.4783 H       1  LIG1        0.0233
     44 H           6.4554   -1.3804    3.5385 H       1  LIG1        0.0233
     45 H           7.3124   -0.0798    2.6977 H       1  LIG1        0.0233
     46 H           8.4510   -0.5642    6.5765 H       1  LIG1        0.0309
     47 H           7.3491   -2.6890    4.7420 H       1  LIG1        0.0268
     48 H           7.0924   -2.3955    6.4550 H       1  LIG1        0.0268
     49 H           8.7529   -4.2938    5.7885 H       1  LIG1        0.0268
     50 H           9.2943   -3.1541    6.9893 H       1  LIG1        0.0268
     51 H          11.0955   -3.0218    5.5398 H       1  LIG1        0.0309
     52 H          11.3502   -3.0636    3.3092 H       1  LIG1        0.0309
     53 H           9.5339   -5.1623    4.2582 H       1  LIG1        0.0310
     54 H          11.0358   -5.2261    3.4062 H       1  LIG1        0.0310
     55 H           9.0766   -6.2237    2.1520 H       1  LIG1        0.0572
     56 H           7.8912   -5.9658    0.1882 H       1  LIG1        0.0335
     57 H           9.0437   -5.1151   -0.8435 H       1  LIG1        0.0335
     58 H           6.8048   -4.5239   -1.5495 H       1  LIG1        0.0596
     59 H           6.3766   -4.0119    1.1940 H       1  LIG1        0.2098
     60 H           6.7774   -2.0574   -1.1568 H       1  LIG1        0.0290
     61 H           8.3759   -2.6450   -1.6260 H       1  LIG1        0.0290
     62 H           7.3628   -1.9423    1.1507 H       1  LIG1        0.0274
     63 H           8.5448   -1.0487    0.2196 H       1  LIG1        0.0274
     64 H          10.5627   -3.2975   -0.6661 H       1  LIG1        0.0238
     65 H          11.4974   -3.1528    0.8227 H       1  LIG1        0.0238
     66 H          10.8429   -1.7144    0.0222 H       1  LIG1        0.0238
     67 H           8.4910   -2.2829    2.9878 H       1  LIG1        0.0312
     68 H           9.3187   -0.1768    2.2545 H       1  LIG1        0.0268
     69 H          10.9066   -0.7811    1.9191 H       1  LIG1        0.0268
     70 H          10.5384    0.6449    4.0638 H       1  LIG1        0.0271
     71 H          11.6640   -0.6579    3.9729 H       1  LIG1        0.0271
     72 H          11.8749   -0.9532    6.2818 H       1  LIG1        0.0235
     73 H          10.4853   -1.1668    7.3400 H       1  LIG1        0.0235
     74 H          10.7595    0.3945    6.5498 H       1  LIG1        0.0235
@<TRIPOS>BOND
     1     1     2    1
     2     2     3    1
     3     2     4    1
     4     4     5    1
     5     5     6    1
     6     6     7    1
     7     7     8    1
     8     7     9    1
     9     7    10    1
    10    10    11    1
    11    11    12    1
    12    12    13    1
    13    13    14    1
    14    14    15    1
    15    15    16    1
    16    16    17    2
    17    17    18    1
    18    18    19    1
    19    19    20    1
    20    19    21    1
    21    21    22    1
    22    22    23    1
    23    17    23    1
    24    23    24    1
    25    23    25    1
    26    14    25    1
    27    25    26    1
    28    26    27    1
    29    27    28    1
    30    10    28    1
    31    13    28    1
    32    28    29    1
    33     1    30    1
    34     1    31    1
    35     1    32    1
    36     2    33    1
    37     3    34    1
    38     3    35    1
    39     3    36    1
    40     4    37    1
    41     4    38    1
    42     5    39    1
    43     5    40    1
    44     6    41    1
    45     6    42    1
    46     9    43    1
    47     9    44    1
    48     9    45    1
    49    10    46    1
    50    11    47    1
    51    11    48    1
    52    12    49    1
    53    12    50    1
    54    13    51    1
    55    14    52    1
    56    15    53    1
    57    15    54    1
    58    16    55    1
    59    18    56    1
    60    18    57    1
    61    19    58    1
    62    20    59    1
    63    21    60    1
    64    21    61    1
    65    22    62    1
    66    22    63    1
    67    24    64    1
    68    24    65    1
    69    24    66    1
    70    25    67    1
    71    26    68    1
    72    26    69    1
    73    27    70    1
    74    27    71    1
    75    29    72    1
    76    29    73    1
    77    29    74    1
