@<TRIPOS>MOLECULE
*****
 28 29 0 0 0
SMALL
GASTEIGER

@<TRIPOS>ATOM
      1 O           2.7387    0.2532    1.7326 O.2     1  LIG1       -0.2500
      2 C           2.4182    0.4402    0.5711 C.2     1  LIG1        0.3167
      3 O           1.2032    0.0372    0.1075 O.3     1  LIG1       -0.4800
      4 C           3.2822    1.1408   -0.4947 C.3     1  LIG1        0.1075
      5 C           2.6390    2.4331   -1.0260 C.ar    1  LIG1       -0.0292
      6 C           2.9114    2.8479   -2.3434 C.ar    1  LIG1       -0.0561
      7 C           2.3784    4.0394   -2.8465 C.ar    1  LIG1       -0.0431
      8 C           1.5729    4.8355   -2.0374 C.ar    1  LIG1        0.0410
      9 CL          0.9383    6.3133   -2.6485 Cl      1  LIG1       -0.0835
     10 C           1.2860    4.4429   -0.7331 C.ar    1  LIG1       -0.0431
     11 C           1.8123    3.2473   -0.2296 C.ar    1  LIG1       -0.0561
     12 C           4.7518    1.2646   -0.0582 C.ar    1  LIG1       -0.0110
     13 C           5.3212    2.5027    0.3018 C.ar    1  LIG1       -0.0561
     14 C           6.6573    2.5984    0.7111 C.ar    1  LIG1       -0.0614
     15 C           7.4537    1.4610    0.7855 C.ar    1  LIG1       -0.0604
     16 C           6.9143    0.2238    0.4471 C.ar    1  LIG1       -0.0431
     17 C           5.5809    0.1242    0.0277 C.ar    1  LIG1        0.0452
     18 CL          5.0180   -1.4563   -0.4003 Cl      1  LIG1       -0.0832
     19 H           1.0304    0.2581   -0.8276 H       1  LIG1        0.2951
     20 H           3.2799    0.4541   -1.3543 H       1  LIG1        0.0512
     21 H           3.5565    2.2522   -2.9879 H       1  LIG1        0.0621
     22 H           2.6049    4.3461   -3.8648 H       1  LIG1        0.0632
     23 H           0.6613    5.0677   -0.0985 H       1  LIG1        0.0632
     24 H           1.5707    2.9739    0.7975 H       1  LIG1        0.0621
     25 H           4.7402    3.4219    0.2705 H       1  LIG1        0.0621
     26 H           7.0751    3.5671    0.9775 H       1  LIG1        0.0618
     27 H           8.4895    1.5359    1.1080 H       1  LIG1        0.0618
     28 H           7.5390   -0.6642    0.5122 H       1  LIG1        0.0632
@<TRIPOS>BOND
     1     1     2    2
     2     2     3    1
     3     2     4    1
     4     4     5    1
     5     5     6   ar
     6     6     7   ar
     7     7     8   ar
     8     8     9    1
     9     8    10   ar
    10    10    11   ar
    11     5    11   ar
    12     4    12    1
    13    12    13   ar
    14    13    14   ar
    15    14    15   ar
    16    15    16   ar
    17    16    17   ar
    18    12    17   ar
    19    17    18    1
    20     3    19    1
    21     4    20    1
    22     6    21    1
    23     7    22    1
    24    10    23    1
    25    11    24    1
    26    13    25    1
    27    14    26    1
    28    15    27    1
    29    16    28    1
