@<TRIPOS>MOLECULE
*****
 84 88 0 0 0
SMALL
GASTEIGER

@<TRIPOS>ATOM
      1 C           6.2856    1.7971   -0.3803 C.3     1  LIG1       -0.0621
      2 C           5.1507    2.6354    0.2174 C.3     1  LIG1       -0.0405
      3 H           5.6071    3.2799    0.9757 H       1  LIG1        0.0301
      4 C           4.2264    1.6302    0.9784 C.3     1  LIG1       -0.0501
      5 C           3.1803    2.2116    1.9530 C.3     1  LIG1       -0.0490
      6 C           3.8031    3.0069    3.1234 C.3     1  LIG1       -0.0110
      7 C           2.8169    3.6258    4.1706 C.3     1  LIG1        0.1097
      8 C           1.8735    4.6086    3.4335 C.3     1  LIG1       -0.0227
      9 O           1.9480    2.5907    4.7055 O.3     1  LIG1       -0.3583
     10 C           1.7206    3.0201    6.0613 C.3     1  LIG1        0.0670
     11 C           3.0928    3.4949    6.5319 C.3     1  LIG1        0.0303
     12 C           3.9922    2.2649    6.7969 C.3     1  LIG1       -0.0455
     13 C           3.0001    4.2628    7.8724 C.3     1  LIG1       -0.0455
     14 N           3.6359    4.1668    5.3175 N.4     1  LIG1       -0.3508
     15 O           3.5008    5.5539    5.4338 O.co2   1  LIG1       -0.7843
     16 C           4.4109    3.5769   -0.7953 C.3     1  LIG1       -0.0328
     17 C           3.6767    2.8841   -1.9550 C.3     1  LIG1       -0.0492
     18 C           3.4547    3.9904   -2.9828 C.3     1  LIG1       -0.0492
     19 C           4.7917    4.7474   -3.0217 C.3     1  LIG1       -0.0320
     20 C           5.8885    4.1744   -4.0144 C.3     1  LIG1       -0.0307
     21 C           5.3560    3.1832   -5.0696 C.3     1  LIG1       -0.0311
     22 C           6.3948    2.3654   -5.7812 C.2     1  LIG1       -0.0839
     23 C           7.6669    2.2467   -5.4103 C.2     1  LIG1       -0.0648
     24 C           8.6018    1.2954   -6.1436 C.3     1  LIG1       -0.0051
     25 C           9.2334    0.3007   -5.1712 C.3     1  LIG1        0.0590
     26 H           8.4529   -0.3305   -4.7265 H       1  LIG1        0.0596
     27 O          10.1320   -0.5583   -5.8695 O.3     1  LIG1       -0.3915
     28 C           9.9925    1.0465   -4.0795 C.3     1  LIG1       -0.0258
     29 C           9.0694    1.9997   -3.3235 C.3     1  LIG1       -0.0413
     30 C           8.2506    2.9973   -4.2084 C.3     1  LIG1       -0.0078
     31 C           9.1926    4.0976   -4.7503 C.3     1  LIG1       -0.0556
     32 C           7.1050    3.5911   -3.2849 C.3     1  LIG1       -0.0285
     33 C           7.6266    4.6403   -2.2976 C.3     1  LIG1       -0.0486
     34 C           6.6512    5.0194   -1.1909 C.3     1  LIG1       -0.0468
     35 C           5.1531    4.8266   -1.4833 C.3     1  LIG1       -0.0259
     36 C           4.4557    6.0967   -0.8881 C.3     1  LIG1       -0.0590
     37 H           5.9239    1.0865   -1.1295 H       1  LIG1        0.0233
     38 H           6.7958    1.2238    0.4017 H       1  LIG1        0.0233
     39 H           7.0636    2.4151   -0.8162 H       1  LIG1        0.0233
     40 H           4.8625    0.9528    1.5671 H       1  LIG1        0.0268
     41 H           3.7152    0.9860    0.2502 H       1  LIG1        0.0268
     42 H           2.6082    1.3690    2.3654 H       1  LIG1        0.0267
     43 H           2.4721    2.8198    1.3857 H       1  LIG1        0.0267
     44 H           4.4012    3.8245    2.7052 H       1  LIG1        0.0306
     45 H           4.5006    2.3322    3.6369 H       1  LIG1        0.0306
     46 H           1.2521    4.0734    2.7077 H       1  LIG1        0.0270
     47 H           2.4269    5.3898    2.9024 H       1  LIG1        0.0270
     48 H           1.1599    5.0802    4.1184 H       1  LIG1        0.0270
     49 H           1.3279    2.1823    6.6456 H       1  LIG1        0.0578
     50 H           0.9712    3.8222    6.0665 H       1  LIG1        0.0578
     51 H           3.5633    1.6345    7.5856 H       1  LIG1        0.0248
     52 H           4.9938    2.5701    7.1201 H       1  LIG1        0.0248
     53 H           4.1047    1.6309    5.9115 H       1  LIG1        0.0248
     54 H           2.6486    3.6005    8.6744 H       1  LIG1        0.0248
     55 H           2.2982    5.1031    7.8324 H       1  LIG1        0.0248
     56 H           3.9789    4.6483    8.1836 H       1  LIG1        0.0248
     57 H           3.6047    4.0115   -0.1861 H       1  LIG1        0.0309
     58 H           2.7186    2.4632   -1.6317 H       1  LIG1        0.0268
     59 H           4.2722    2.0756   -2.3851 H       1  LIG1        0.0268
     60 H           2.6620    4.6635   -2.6299 H       1  LIG1        0.0268
     61 H           3.1055    3.6236   -3.9499 H       1  LIG1        0.0268
     62 H           4.5805    5.7606   -3.3941 H       1  LIG1        0.0309
     63 H           6.2563    5.0445   -4.5816 H       1  LIG1        0.0309
     64 H           4.7659    3.7361   -5.8116 H       1  LIG1        0.0310
     65 H           4.6932    2.4439   -4.6143 H       1  LIG1        0.0310
     66 H           6.0188    1.7864   -6.6305 H       1  LIG1        0.0572
     67 H           9.3816    1.8577   -6.6689 H       1  LIG1        0.0335
     68 H           8.0723    0.7394   -6.9286 H       1  LIG1        0.0335
     69 H          10.4653   -1.2041   -5.2214 H       1  LIG1        0.2098
     70 H          10.8434    1.5876   -4.5106 H       1  LIG1        0.0290
     71 H          10.4290    0.3256   -3.3770 H       1  LIG1        0.0290
     72 H           9.6693    2.5464   -2.5870 H       1  LIG1        0.0274
     73 H           8.3747    1.3737   -2.7475 H       1  LIG1        0.0274
     74 H           9.9796    3.6892   -5.3955 H       1  LIG1        0.0238
     75 H           9.7128    4.6243   -3.9429 H       1  LIG1        0.0238
     76 H           8.6457    4.8422   -5.3393 H       1  LIG1        0.0238
     77 H           6.7001    2.7394   -2.7392 H       1  LIG1        0.0312
     78 H           7.8708    5.5583   -2.8506 H       1  LIG1        0.0268
     79 H           8.5612    4.3188   -1.8271 H       1  LIG1        0.0268
     80 H           6.8598    6.0758   -0.9671 H       1  LIG1        0.0271
     81 H           6.9356    4.5166   -0.2632 H       1  LIG1        0.0271
     82 H           4.6553    6.1772    0.1876 H       1  LIG1        0.0235
     83 H           3.3683    6.0773   -1.0179 H       1  LIG1        0.0235
     84 H           4.8194    7.0127   -1.3678 H       1  LIG1        0.0235
@<TRIPOS>BOND
     1     2     4    1
     2     4     5    1
     3     5     6    1
     4     6     7    1
     5     7     8    1
     6     7     9    1
     7     9    10    1
     8    10    11    1
     9    11    12    1
    10    11    13    1
    11    11    14    1
    12     7    14    1
    13    14    15    1
    14    16    17    1
    15    17    18    1
    16    18    19    1
    17    19    20    1
    18    20    21    1
    19    21    22    1
    20    22    23    2
    21    23    24    1
    22    24    25    1
    23    25    28    1
    24    28    29    1
    25    29    30    1
    26    23    30    1
    27    30    32    1
    28    20    32    1
    29    32    33    1
    30    33    34    1
    31    34    35    1
    32    16    35    1
    33    19    35    1
    34     2    16    1
    35    30    31    1
    36    35    36    1
    37     2     3    1
    38     2     1    1
    39    25    27    1
    40    25    26    1
    41     1    37    1
    42     1    38    1
    43     1    39    1
    44     4    40    1
    45     4    41    1
    46     5    42    1
    47     5    43    1
    48     6    44    1
    49     6    45    1
    50     8    46    1
    51     8    47    1
    52     8    48    1
    53    10    49    1
    54    10    50    1
    55    12    51    1
    56    12    52    1
    57    12    53    1
    58    13    54    1
    59    13    55    1
    60    13    56    1
    61    16    57    1
    62    17    58    1
    63    17    59    1
    64    18    60    1
    65    18    61    1
    66    19    62    1
    67    20    63    1
    68    21    64    1
    69    21    65    1
    70    22    66    1
    71    24    67    1
    72    24    68    1
    73    27    69    1
    74    28    70    1
    75    28    71    1
    76    29    72    1
    77    29    73    1
    78    31    74    1
    79    31    75    1
    80    31    76    1
    81    32    77    1
    82    33    78    1
    83    33    79    1
    84    34    80    1
    85    34    81    1
    86    36    82    1
    87    36    83    1
    88    36    84    1
