@<TRIPOS>MOLECULE
*****
 34 35 0 0 0
SMALL
GASTEIGER

@<TRIPOS>ATOM
      1 C           1.1750   -0.1403   -0.1770 C.2     1  LIG1       -0.0617
      2 C           0.1105    0.1713   -0.9272 C.2     1  LIG1       -0.0617
      3 C          -1.2365   -0.1375   -0.5185 C.2     1  LIG1       -0.0612
      4 C          -2.2800   -0.0978   -1.3646 C.2     1  LIG1       -0.0546
      5 C          -3.6573   -0.4123   -0.9662 C.ar    1  LIG1       -0.0250
      6 C          -4.5239   -0.9959   -1.9019 C.ar    1  LIG1       -0.0546
      7 C          -5.8468   -1.2867   -1.5582 C.ar    1  LIG1       -0.0612
      8 C          -6.3194   -0.9904   -0.2812 C.ar    1  LIG1       -0.0617
      9 C          -5.4724   -0.3955    0.6510 C.ar    1  LIG1       -0.0612
     10 C          -4.1535   -0.1008    0.3073 C.ar    1  LIG1       -0.0546
     11 C           2.5302    0.1536   -0.5962 C.2     1  LIG1       -0.0612
     12 C           3.6222   -0.1957    0.1045 C.2     1  LIG1       -0.0546
     13 C           4.9909    0.0985   -0.3435 C.ar    1  LIG1       -0.0250
     14 C           6.0029    0.2783    0.6106 C.ar    1  LIG1       -0.0546
     15 C           7.3130    0.5611    0.2114 C.ar    1  LIG1       -0.0612
     16 C           7.6283    0.6563   -1.1425 C.ar    1  LIG1       -0.0617
     17 C           6.6380    0.4537   -2.0997 C.ar    1  LIG1       -0.0612
     18 C           5.3327    0.1653   -1.7022 C.ar    1  LIG1       -0.0546
     19 H           1.0505   -0.6668    0.7688 H       1  LIG1        0.0618
     20 H           0.2417    0.6743   -1.8809 H       1  LIG1        0.0618
     21 H          -1.3796   -0.4116    0.5226 H       1  LIG1        0.0618
     22 H          -2.1259    0.1295   -2.4158 H       1  LIG1        0.0623
     23 H          -4.1742   -1.2382   -2.9019 H       1  LIG1        0.0623
     24 H          -6.5083   -1.7453   -2.2887 H       1  LIG1        0.0618
     25 H          -7.3472   -1.2175   -0.0133 H       1  LIG1        0.0618
     26 H          -5.8379   -0.1544    1.6456 H       1  LIG1        0.0618
     27 H          -3.5187    0.3829    1.0457 H       1  LIG1        0.0623
     28 H           2.6283    0.6850   -1.5378 H       1  LIG1        0.0618
     29 H           3.5266   -0.7075    1.0561 H       1  LIG1        0.0623
     30 H           5.7793    0.2140    1.6724 H       1  LIG1        0.0623
     31 H           8.0876    0.7105    0.9592 H       1  LIG1        0.0618
     32 H           8.6444    0.8829   -1.4529 H       1  LIG1        0.0618
     33 H           6.8782    0.5171   -3.1577 H       1  LIG1        0.0618
     34 H           4.5853   -0.0107   -2.4717 H       1  LIG1        0.0623
@<TRIPOS>BOND
     1     1     2    2
     2     2     3    1
     3     3     4    2
     4     4     5    1
     5     5     6   ar
     6     6     7   ar
     7     7     8   ar
     8     8     9   ar
     9     9    10   ar
    10     5    10   ar
    11     1    11    1
    12    11    12    2
    13    12    13    1
    14    13    14   ar
    15    14    15   ar
    16    15    16   ar
    17    16    17   ar
    18    17    18   ar
    19    13    18   ar
    20     1    19    1
    21     2    20    1
    22     3    21    1
    23     4    22    1
    24     6    23    1
    25     7    24    1
    26     8    25    1
    27     9    26    1
    28    10    27    1
    29    11    28    1
    30    12    29    1
    31    14    30    1
    32    15    31    1
    33    16    32    1
    34    17    33    1
    35    18    34    1
