@<TRIPOS>MOLECULE
*****
 73 76 0 0 0
SMALL
GASTEIGER

@<TRIPOS>ATOM
      1 C           8.6059  -14.9696    1.8348 C.3     1  LIG1       -0.0587
      2 C           9.6879  -16.0595    1.9013 C.3     1  LIG1       -0.0224
      3 H           9.3290  -16.8617    1.2421 H       1  LIG1        0.0343
      4 C           9.7590  -16.5929    3.3178 C.2     1  LIG1       -0.0846
      5 C           9.3681  -17.8299    3.6703 C.2     1  LIG1       -0.0846
      6 C           9.4633  -18.4055    5.0699 C.3     1  LIG1       -0.0234
      7 H          10.3368  -17.9642    5.5696 H       1  LIG1        0.0343
      8 C           9.7332  -19.9174    4.9438 C.3     1  LIG1       -0.0587
      9 C           8.2010  -18.1133    5.9337 C.3     1  LIG1       -0.0407
     10 C           8.3932  -18.5881    7.3803 C.3     1  LIG1       -0.0621
     11 C           7.8434  -16.6194    5.9817 C.3     1  LIG1       -0.0621
     12 C          11.0441  -15.5664    1.3062 C.3     1  LIG1       -0.0291
     13 H          10.7928  -15.1443    0.3219 H       1  LIG1        0.0312
     14 C          11.7465  -14.4445    2.1295 C.3     1  LIG1       -0.0486
     15 C          13.1014  -14.9994    2.6059 C.3     1  LIG1       -0.0457
     16 C          12.9676  -16.5114    2.4377 C.3     1  LIG1       -0.0136
     17 H          12.3504  -16.8557    3.2787 H       1  LIG1        0.0351
     18 C          12.1706  -16.6362    1.1147 C.3     1  LIG1       -0.0222
     19 C          11.7480  -18.1040    0.9220 C.3     1  LIG1       -0.0462
     20 C          12.9475  -19.0726    0.9722 C.3     1  LIG1       -0.0452
     21 C          13.7905  -18.9111    2.2619 C.3     1  LIG1       -0.0102
     22 H          13.0876  -19.1303    3.0822 H       1  LIG1        0.0354
     23 C          14.1611  -17.4297    2.4350 C.2     1  LIG1       -0.0620
     24 C          15.4415  -17.0164    2.5223 C.2     1  LIG1       -0.0620
     25 C          16.5357  -17.9145    2.3016 C.2     1  LIG1       -0.0619
     26 C          16.3663  -19.2487    2.2186 C.2     1  LIG1       -0.0607
     27 C          15.0087  -19.9199    2.4506 C.3     1  LIG1       -0.0041
     28 C          14.9316  -21.2074    1.5711 C.3     1  LIG1       -0.0410
     29 C          15.6582  -21.0548    0.2283 C.3     1  LIG1       -0.0258
     30 C          17.1588  -20.7759    0.4238 C.3     1  LIG1        0.0590
     31 H          17.5049  -20.1077   -0.3745 H       1  LIG1        0.0596
     32 C          17.4864  -20.1562    1.7910 C.3     1  LIG1       -0.0048
     33 O          17.8884  -21.9965    0.2925 O.3     1  LIG1       -0.3915
     34 C          14.9841  -20.3889    3.9343 C.3     1  LIG1       -0.0553
     35 C          13.0027  -16.2129   -0.1347 C.3     1  LIG1       -0.0587
     36 H           8.8779  -14.0719    2.3986 H       1  LIG1        0.0235
     37 H           7.6560  -15.3398    2.2400 H       1  LIG1        0.0235
     38 H           8.4186  -14.6730    0.7966 H       1  LIG1        0.0235
     39 H          10.1348  -15.9151    4.0811 H       1  LIG1        0.0572
     40 H           8.9862  -18.4983    2.8994 H       1  LIG1        0.0572
     41 H           9.9375  -20.3813    5.9130 H       1  LIG1        0.0235
     42 H          10.6071  -20.1126    4.3112 H       1  LIG1        0.0235
     43 H           8.8771  -20.4396    4.4986 H       1  LIG1        0.0235
     44 H           7.3425  -18.6518    5.5098 H       1  LIG1        0.0301
     45 H           9.1996  -18.0288    7.8675 H       1  LIG1        0.0233
     46 H           8.6299  -19.6527    7.4409 H       1  LIG1        0.0233
     47 H           7.4775  -18.4329    7.9611 H       1  LIG1        0.0233
     48 H           8.7237  -16.0109    6.2166 H       1  LIG1        0.0233
     49 H           7.0889  -16.4190    6.7504 H       1  LIG1        0.0233
     50 H           7.4267  -16.2748    5.0301 H       1  LIG1        0.0233
     51 H          11.1508  -14.1084    2.9831 H       1  LIG1        0.0268
     52 H          11.9163  -13.5610    1.5015 H       1  LIG1        0.0268
     53 H          13.3067  -14.7193    3.6441 H       1  LIG1        0.0271
     54 H          13.9104  -14.5841    1.9931 H       1  LIG1        0.0271
     55 H          11.2082  -18.2325   -0.0236 H       1  LIG1        0.0271
     56 H          11.0638  -18.4202    1.7104 H       1  LIG1        0.0271
     57 H          13.5672  -18.9305    0.0840 H       1  LIG1        0.0271
     58 H          12.5295  -20.0826    0.9168 H       1  LIG1        0.0271
     59 H          15.6910  -15.9687    2.6421 H       1  LIG1        0.0617
     60 H          17.5073  -17.4642    2.1233 H       1  LIG1        0.0617
     61 H          13.8981  -21.5290    1.4163 H       1  LIG1        0.0275
     62 H          15.4015  -22.0510    2.0968 H       1  LIG1        0.0275
     63 H          15.2192  -20.2242   -0.3325 H       1  LIG1        0.0290
     64 H          15.5044  -21.9579   -0.3734 H       1  LIG1        0.0290
     65 H          18.4460  -19.6285    1.7266 H       1  LIG1        0.0335
     66 H          17.6420  -20.9387    2.5454 H       1  LIG1        0.0335
     67 H          17.7350  -22.3269   -0.6095 H       1  LIG1        0.2098
     68 H          15.0264  -19.5424    4.6294 H       1  LIG1        0.0238
     69 H          15.8289  -21.0469    4.1705 H       1  LIG1        0.0238
     70 H          14.0674  -20.9518    4.1484 H       1  LIG1        0.0238
     71 H          13.2735  -15.1526   -0.1215 H       1  LIG1        0.0235
     72 H          12.4197  -16.3779   -1.0492 H       1  LIG1        0.0235
     73 H          13.9342  -16.7768   -0.2357 H       1  LIG1        0.0235
@<TRIPOS>BOND
     1     2     4    1
     2     4     5    2
     3     6     8    1
     4     6     9    1
     5     9    10    1
     6     9    11    1
     7    12    14    1
     8    14    15    1
     9    15    16    1
    10    16    18    1
    11    12    18    1
    12    18    19    1
    13    19    20    1
    14    20    21    1
    15    21    23    1
    16    16    23    1
    17    23    24    2
    18    24    25    1
    19    25    26    2
    20    26    27    1
    21    21    27    1
    22    27    28    1
    23    28    29    1
    24    29    30    1
    25    30    32    1
    26    26    32    1
    27     2    12    1
    28    12    13    1
    29    16    17    1
    30    18    35    1
    31    21    22    1
    32    27    34    1
    33    30    31    1
    34    30    33    1
    35     6     7    1
    36     6     5    1
    37     2     3    1
    38     2     1    1
    39     1    36    1
    40     1    37    1
    41     1    38    1
    42     4    39    1
    43     5    40    1
    44     8    41    1
    45     8    42    1
    46     8    43    1
    47     9    44    1
    48    10    45    1
    49    10    46    1
    50    10    47    1
    51    11    48    1
    52    11    49    1
    53    11    50    1
    54    14    51    1
    55    14    52    1
    56    15    53    1
    57    15    54    1
    58    19    55    1
    59    19    56    1
    60    20    57    1
    61    20    58    1
    62    24    59    1
    63    25    60    1
    64    28    61    1
    65    28    62    1
    66    29    63    1
    67    29    64    1
    68    32    65    1
    69    32    66    1
    70    33    67    1
    71    34    68    1
    72    34    69    1
    73    34    70    1
    74    35    71    1
    75    35    72    1
    76    35    73    1
