@<TRIPOS>MOLECULE
*****
 28 29 0 0 0
SMALL
GASTEIGER

@<TRIPOS>ATOM
      1 C          -0.3771   -0.7086   -0.1277 C.ar    1  LIG1       -0.0565
      2 C           0.9801   -0.4421    0.0679 C.ar    1  LIG1       -0.0431
      3 C           1.3780    0.8000    0.5514 C.ar    1  LIG1        0.0410
      4 C           0.4288    1.7718    0.8543 C.ar    1  LIG1       -0.0431
      5 C          -0.9312    1.5034    0.6684 C.ar    1  LIG1       -0.0565
      6 C          -1.3529    0.2649    0.1558 C.ar    1  LIG1       -0.0373
      7 C          -2.8317   -0.0666   -0.0859 C.3     1  LIG1        0.0391
      8 C          -3.4562   -0.6416    1.1912 C.ar    1  LIG1       -0.0373
      9 C          -3.4815   -2.0371    1.3685 C.ar    1  LIG1       -0.0565
     10 C          -4.0453   -2.6060    2.5150 C.ar    1  LIG1       -0.0431
     11 C          -4.5882   -1.7835    3.4962 C.ar    1  LIG1        0.0410
     12 C          -4.5625   -0.3994    3.3461 C.ar    1  LIG1       -0.0431
     13 C          -3.9917    0.1717    2.2038 C.ar    1  LIG1       -0.0565
     14 CL         -5.2936   -2.4809    4.9014 Cl      1  LIG1       -0.0835
     15 C          -3.6387    1.0903   -0.7442 C.3     1  LIG1        0.1185
     16 CL         -2.9375    1.5605   -2.3318 Cl      1  LIG1       -0.1036
     17 CL         -5.3529    0.6422   -1.0362 Cl      1  LIG1       -0.1036
     18 CL          3.0498    1.1356    0.7781 Cl      1  LIG1       -0.0835
     19 H          -0.6661   -1.6865   -0.5082 H       1  LIG1        0.0621
     20 H           1.7187   -1.2058   -0.1616 H       1  LIG1        0.0632
     21 H           0.7401    2.7416    1.2345 H       1  LIG1        0.0632
     22 H          -1.6432    2.2823    0.9277 H       1  LIG1        0.0621
     23 H          -2.8521   -0.8774   -0.8310 H       1  LIG1        0.0423
     24 H          -3.0637   -2.6994    0.6134 H       1  LIG1        0.0621
     25 H          -4.0596   -3.6862    2.6309 H       1  LIG1        0.0632
     26 H          -4.9864    0.2414    4.1155 H       1  LIG1        0.0632
     27 H          -3.9810    1.2556    2.1232 H       1  LIG1        0.0621
     28 H          -3.6529    1.9933   -0.1278 H       1  LIG1        0.0643
@<TRIPOS>BOND
     1     1     2   ar
     2     2     3   ar
     3     3     4   ar
     4     4     5   ar
     5     5     6   ar
     6     1     6   ar
     7     6     7    1
     8     7     8    1
     9     8     9   ar
    10     9    10   ar
    11    10    11   ar
    12    11    12   ar
    13    12    13   ar
    14     8    13   ar
    15    11    14    1
    16     7    15    1
    17    15    16    1
    18    15    17    1
    19     3    18    1
    20     1    19    1
    21     2    20    1
    22     4    21    1
    23     5    22    1
    24     7    23    1
    25     9    24    1
    26    10    25    1
    27    12    26    1
    28    13    27    1
    29    15    28    1
