@<TRIPOS>MOLECULE
*****
 50 49 0 0 0
SMALL
GASTEIGER

@<TRIPOS>ATOM
      1 C           0.8475    5.9315    2.3770 C.3     1  LIG1       -0.0653
      2 C           1.9070    5.0622    3.0293 C.3     1  LIG1       -0.0559
      3 C           3.0159    5.9009    3.6728 C.3     1  LIG1       -0.0533
      4 C           3.8862    6.6716    2.6709 C.3     1  LIG1       -0.0531
      5 C           4.4844    5.8666    1.5077 C.3     1  LIG1       -0.0531
      6 C           5.5103    4.7977    1.8935 C.3     1  LIG1       -0.0531
      7 C           4.9404    3.6502    2.7360 C.3     1  LIG1       -0.0531
      8 C           5.9451    2.6123    3.1269 C.3     1  LIG1       -0.0531
      9 C           7.1633    3.0137    3.9320 C.3     1  LIG1       -0.0531
     10 C           8.1105    1.8085    4.1309 C.3     1  LIG1       -0.0531
     11 C           8.6059    1.1848    2.8273 C.3     1  LIG1       -0.0531
     12 C           7.7316    0.5768    1.7512 C.3     1  LIG1       -0.0530
     13 C           8.4313    0.2304    0.4445 C.3     1  LIG1       -0.0526
     14 C           9.0645    1.4123   -0.3391 C.3     1  LIG1       -0.0430
     15 C          10.3734    2.0516    0.1758 C.3     1  LIG1        0.0448
     16 C          10.3086    3.0198    1.3530 C.2     1  LIG1        0.3047
     17 O           9.5984    3.9743    1.4151 O.2     1  LIG1       -0.2510
     18 O          11.0768    2.5924    2.4121 O.3     1  LIG1       -0.4806
     19 H           0.1886    5.3222    1.7524 H       1  LIG1        0.0230
     20 H           1.2885    6.6992    1.7359 H       1  LIG1        0.0230
     21 H           0.2424    6.4272    3.1410 H       1  LIG1        0.0230
     22 H           2.3053    4.3742    2.2772 H       1  LIG1        0.0263
     23 H           1.4404    4.4269    3.7912 H       1  LIG1        0.0263
     24 H           3.6375    5.2803    4.3126 H       1  LIG1        0.0265
     25 H           2.5888    6.5945    4.4023 H       1  LIG1        0.0265
     26 H           4.6927    7.1811    3.2116 H       1  LIG1        0.0265
     27 H           3.2753    7.4729    2.2395 H       1  LIG1        0.0265
     28 H           4.9845    6.5789    0.8361 H       1  LIG1        0.0265
     29 H           3.6900    5.4140    0.9040 H       1  LIG1        0.0265
     30 H           6.3566    5.2750    2.3966 H       1  LIG1        0.0265
     31 H           5.9140    4.3787    0.9577 H       1  LIG1        0.0265
     32 H           4.1617    3.1476    2.1467 H       1  LIG1        0.0265
     33 H           4.5262    3.9454    3.6765 H       1  LIG1        0.0265
     34 H           6.2718    2.3837    2.1483 H       1  LIG1        0.0265
     35 H           5.4646    1.7349    3.5740 H       1  LIG1        0.0265
     36 H           6.8700    3.4178    4.9060 H       1  LIG1        0.0265
     37 H           7.6977    3.8198    3.4115 H       1  LIG1        0.0265
     38 H           7.6699    1.0389    4.7618 H       1  LIG1        0.0265
     39 H           8.9963    2.2034    4.6588 H       1  LIG1        0.0265
     40 H           9.4925    0.5622    2.9963 H       1  LIG1        0.0265
     41 H           8.8726    2.0862    2.3520 H       1  LIG1        0.0265
     42 H           7.0402    1.2767    1.3197 H       1  LIG1        0.0265
     43 H           7.1455   -0.2377    2.1753 H       1  LIG1        0.0265
     44 H           7.6208   -0.1500   -0.2004 H       1  LIG1        0.0265
     45 H           9.1345   -0.5866    0.5922 H       1  LIG1        0.0265
     46 H           8.3102    2.1860   -0.5429 H       1  LIG1        0.0270
     47 H           9.3136    0.9908   -1.3255 H       1  LIG1        0.0270
     48 H          10.7655    2.6894   -0.6172 H       1  LIG1        0.0377
     49 H          11.1006    1.2642    0.3626 H       1  LIG1        0.0377
     50 H          11.3832    1.6711    2.3607 H       1  LIG1        0.2951
@<TRIPOS>BOND
     1     1     2    1
     2     2     3    1
     3     3     4    1
     4     4     5    1
     5     5     6    1
     6     6     7    1
     7     7     8    1
     8     8     9    1
     9     9    10    1
    10    10    11    1
    11    11    12    1
    12    12    13    1
    13    13    14    1
    14    14    15    1
    15    15    16    1
    16    16    17    2
    17    16    18    1
    18     1    19    1
    19     1    20    1
    20     1    21    1
    21     2    22    1
    22     2    23    1
    23     3    24    1
    24     3    25    1
    25     4    26    1
    26     4    27    1
    27     5    28    1
    28     5    29    1
    29     6    30    1
    30     6    31    1
    31     7    32    1
    32     7    33    1
    33     8    34    1
    34     8    35    1
    35     9    36    1
    36     9    37    1
    37    10    38    1
    38    10    39    1
    39    11    40    1
    40    11    41    1
    41    12    42    1
    42    12    43    1
    43    13    44    1
    44    13    45    1
    45    14    46    1
    46    14    47    1
    47    15    48    1
    48    15    49    1
    49    18    50    1
