@<TRIPOS>MOLECULE
*****
 56 58 0 0 0
SMALL
GASTEIGER

@<TRIPOS>ATOM
      1 C           5.4984   -4.3991    5.6953 C.3     1  LIG1       -0.0445
      2 C           6.0215   -3.3131    4.7412 C.3     1  LIG1        0.0295
      3 C           6.2803   -1.9750    5.4441 C.3     1  LIG1       -0.0445
      4 N           7.1576   -3.7598    3.9159 N.ar    1  LIG1       -0.3372
      5 C           8.3608   -4.2213    4.4356 C.ar    1  LIG1        0.0503
      6 C           8.8253   -4.3130    5.7646 C.ar    1  LIG1       -0.0376
      7 C          10.0845   -4.8589    6.0155 C.ar    1  LIG1       -0.0598
      8 C          10.8889   -5.2742    4.9694 C.ar    1  LIG1       -0.0611
      9 C          10.4386   -5.1594    3.6508 C.ar    1  LIG1       -0.0520
     10 C           9.1456   -4.6500    3.3612 C.ar    1  LIG1        0.0082
     11 C           8.3893   -4.4471    2.1470 C.ar    1  LIG1        0.0147
     12 C           7.1934   -3.8157    2.5202 C.ar    1  LIG1        0.0507
     13 C           6.1099   -3.2600    1.7709 C.2     1  LIG1       -0.0391
     14 C           5.0452   -4.0068    1.4336 C.2     1  LIG1       -0.0539
     15 C           3.8770   -3.5564    0.5905 C.3     1  LIG1        0.0761
     16 H           4.2093   -2.8408   -0.1706 H       1  LIG1        0.0638
     17 C           2.7457   -2.9250    1.4364 C.3     1  LIG1        0.0034
     18 C           1.4819   -2.5254    0.6389 C.3     1  LIG1        0.0679
     19 H           1.7653   -1.8078   -0.1396 H       1  LIG1        0.0599
     20 C           0.3743   -1.9072    1.5020 C.3     1  LIG1        0.0708
     21 C          -0.2072   -2.8436    2.5344 C.2     1  LIG1        0.3072
     22 O          -0.7076   -2.4427    3.5885 O.2     1  LIG1       -0.2509
     23 O          -0.2367   -4.1472    2.1944 O.3     1  LIG1       -0.4806
     24 O           0.9307   -3.6731   -0.0297 O.3     1  LIG1       -0.3912
     25 O           3.4417   -4.7272   -0.0942 O.3     1  LIG1       -0.3877
     26 C           8.7714   -4.8367    0.7683 C.ar    1  LIG1       -0.0151
     27 C           8.3257   -4.1381   -0.3641 C.ar    1  LIG1       -0.0512
     28 C           8.6383   -4.5728   -1.6605 C.ar    1  LIG1       -0.0259
     29 C           9.4557   -5.6783   -1.8409 C.ar    1  LIG1        0.1234
     30 C           9.9590   -6.3635   -0.7485 C.ar    1  LIG1       -0.0259
     31 C           9.5948   -5.9603    0.5436 C.ar    1  LIG1       -0.0512
     32 F           9.7563   -6.0894   -3.0799 F       1  LIG1       -0.2055
     33 H           4.7247   -3.9977    6.3585 H       1  LIG1        0.0249
     34 H           6.2659   -4.8456    6.3315 H       1  LIG1        0.0249
     35 H           5.0528   -5.2189    5.1210 H       1  LIG1        0.0249
     36 H           5.1883   -3.1222    4.0595 H       1  LIG1        0.0522
     37 H           7.0131   -2.0476    6.2525 H       1  LIG1        0.0249
     38 H           5.3500   -1.5923    5.8809 H       1  LIG1        0.0249
     39 H           6.6403   -1.2224    4.7335 H       1  LIG1        0.0249
     40 H           8.2258   -3.9784    6.6038 H       1  LIG1        0.0638
     41 H          10.4365   -4.9485    7.0403 H       1  LIG1        0.0618
     42 H          11.8755   -5.6833    5.1705 H       1  LIG1        0.0618
     43 H          11.1083   -5.4633    2.8526 H       1  LIG1        0.0624
     44 H           6.1848   -2.2194    1.4636 H       1  LIG1        0.0636
     45 H           5.0178   -5.0491    1.7490 H       1  LIG1        0.0598
     46 H           3.1396   -2.0264    1.9284 H       1  LIG1        0.0318
     47 H           2.4664   -3.6343    2.2249 H       1  LIG1        0.0318
     48 H          -0.4618   -1.5921    0.8613 H       1  LIG1        0.0403
     49 H           0.7480   -1.0142    2.0173 H       1  LIG1        0.0403
     50 H           0.2061   -4.3372    1.3295 H       1  LIG1        0.2951
     51 H           0.1679   -3.3631   -0.5644 H       1  LIG1        0.2098
     52 H           2.5310   -4.5784   -0.4095 H       1  LIG1        0.2102
     53 H           7.7204   -3.2446   -0.2661 H       1  LIG1        0.0624
     54 H           8.2435   -4.0532   -2.5273 H       1  LIG1        0.0646
     55 H          10.6129   -7.2164   -0.9027 H       1  LIG1        0.0646
     56 H           9.9561   -6.5656    1.3697 H       1  LIG1        0.0624
@<TRIPOS>BOND
     1     1     2    1
     2     2     3    1
     3     2     4    1
     4     4     5   ar
     5     5     6   ar
     6     6     7   ar
     7     7     8   ar
     8     8     9   ar
     9     9    10   ar
    10     5    10   ar
    11    10    11   ar
    12    11    12   ar
    13     4    12   ar
    14    12    13    1
    15    13    14    2
    16    15    17    1
    17    18    20    1
    18    20    21    1
    19    21    22    2
    20    21    23    1
    21    18    24    1
    22    15    25    1
    23    11    26    1
    24    26    27   ar
    25    27    28   ar
    26    28    29   ar
    27    29    30   ar
    28    30    31   ar
    29    26    31   ar
    30    29    32    1
    31    15    16    1
    32    15    14    1
    33    18    19    1
    34    18    17    1
    35     1    33    1
    36     1    34    1
    37     1    35    1
    38     2    36    1
    39     3    37    1
    40     3    38    1
    41     3    39    1
    42     6    40    1
    43     7    41    1
    44     8    42    1
    45     9    43    1
    46    13    44    1
    47    14    45    1
    48    17    46    1
    49    17    47    1
    50    20    48    1
    51    20    49    1
    52    23    50    1
    53    24    51    1
    54    25    52    1
    55    27    53    1
    56    28    54    1
    57    30    55    1
    58    31    56    1
