@<TRIPOS>MOLECULE
*****
 49 53 0 0 0
SMALL
GASTEIGER

@<TRIPOS>ATOM
      1 C           0.2067   -2.4176   -1.4316 C.3     1  LIG1       -0.0632
      2 C           0.0485   -0.9031   -1.5639 C.3     1  LIG1       -0.0303
      3 C           0.9741   -0.2189   -2.5892 C.3     1  LIG1        0.0803
      4 H           0.7581   -0.6028   -3.5890 H       1  LIG1        0.0579
      5 C           0.7277    1.3380   -2.6350 C.ar    1  LIG1        0.1378
      6 N           1.4065    2.0866   -1.8091 N.ar    1  LIG1       -0.2311
      7 C           1.3869    3.4790   -1.9857 C.ar    1  LIG1        0.0810
      8 C           0.6181    4.1107   -2.9575 C.ar    1  LIG1        0.1003
      9 C           0.7419    5.4896   -3.1688 C.ar    1  LIG1        0.1378
     10 C           1.6547    6.2410   -2.4293 C.ar    1  LIG1       -0.0256
     11 C           2.4320    5.6160   -1.4594 C.ar    1  LIG1       -0.0570
     12 C           2.2839    4.2450   -1.2313 C.ar    1  LIG1       -0.0353
     13 F           0.0325    6.1282   -4.1097 F       1  LIG1       -0.2046
     14 C          -0.2815    3.2723   -3.7714 C.ar    1  LIG1        0.2691
     15 O          -1.0709    3.7970   -4.5386 O.2     1  LIG1       -0.2665
     16 N          -0.1518    1.8834   -3.5772 N.ar    1  LIG1       -0.2628
     17 C          -1.0837    1.0797   -4.2865 C.ar    1  LIG1        0.0512
     18 C          -2.3052    0.7480   -3.6855 C.ar    1  LIG1       -0.0377
     19 C          -3.2807    0.0608   -4.4098 C.ar    1  LIG1       -0.0598
     20 C          -3.0450   -0.2874   -5.7387 C.ar    1  LIG1       -0.0616
     21 C          -1.8378    0.0587   -6.3474 C.ar    1  LIG1       -0.0598
     22 C          -0.8605    0.7517   -5.6276 C.ar    1  LIG1       -0.0377
     23 N           2.3998   -0.4628   -2.2470 N.pl3   1  LIG1       -0.3175
     24 C           3.0807   -1.5063   -2.8454 C.ar    1  LIG1        0.1482
     25 N           2.6124   -2.0433   -3.9949 N.ar    1  LIG1       -0.2187
     26 C           3.2662   -3.0744   -4.5673 C.ar    1  LIG1        0.1205
     27 N           4.3632   -3.6960   -4.1322 N.ar    1  LIG1       -0.2144
     28 C           4.8372   -3.1575   -2.9979 C.ar    1  LIG1        0.1825
     29 C           4.2490   -2.0799   -2.3502 C.ar    1  LIG1        0.1253
     30 N           5.0714   -1.8589   -1.2761 N.ar    1  LIG1       -0.3404
     31 C           6.0737   -2.7927   -1.3092 C.ar    1  LIG1        0.0963
     32 N           5.9541   -3.5966   -2.3394 N.ar    1  LIG1       -0.2164
     33 H          -0.0918   -2.9357   -2.3490 H       1  LIG1        0.0230
     34 H          -0.4362   -2.7832   -0.6227 H       1  LIG1        0.0230
     35 H           1.2284   -2.7134   -1.1796 H       1  LIG1        0.0230
     36 H           0.1854   -0.4536   -0.5737 H       1  LIG1        0.0285
     37 H          -0.9933   -0.7161   -1.8379 H       1  LIG1        0.0285
     38 H           1.7650    7.3032   -2.6303 H       1  LIG1        0.0646
     39 H           3.1700    6.1851   -0.8987 H       1  LIG1        0.0619
     40 H           2.9063    3.7537   -0.4883 H       1  LIG1        0.0639
     41 H          -2.5220    1.0571   -2.6664 H       1  LIG1        0.0638
     42 H          -4.2351   -0.1787   -3.9474 H       1  LIG1        0.0618
     43 H          -3.8125   -0.8066   -6.3084 H       1  LIG1        0.0618
     44 H          -1.6696   -0.1907   -7.3924 H       1  LIG1        0.0618
     45 H           0.0573    1.0516   -6.1265 H       1  LIG1        0.0638
     46 H           2.6980   -0.1211   -1.3447 H       1  LIG1        0.1482
     47 H           2.8474   -3.4429   -5.4980 H       1  LIG1        0.1048
     48 H           4.9737   -1.1296   -0.5861 H       1  LIG1        0.1669
     49 H           6.8613   -2.8385   -0.5670 H       1  LIG1        0.1027
@<TRIPOS>BOND
     1     1     2    1
     2     2     3    1
     3     3     4    1
     4     3     5    1
     5     5     6   ar
     6     6     7   ar
     7     7     8   ar
     8     8     9   ar
     9     9    10   ar
    10    10    11   ar
    11    11    12   ar
    12     7    12   ar
    13     9    13    1
    14     8    14   ar
    15    14    15    2
    16    14    16   ar
    17     5    16   ar
    18    16    17    1
    19    17    18   ar
    20    18    19   ar
    21    19    20   ar
    22    20    21   ar
    23    21    22   ar
    24    17    22   ar
    25     3    23    1
    26    23    24    1
    27    24    25   ar
    28    25    26   ar
    29    26    27   ar
    30    27    28   ar
    31    28    29   ar
    32    24    29   ar
    33    29    30   ar
    34    30    31   ar
    35    31    32   ar
    36    28    32   ar
    37     1    33    1
    38     1    34    1
    39     1    35    1
    40     2    36    1
    41     2    37    1
    42    10    38    1
    43    11    39    1
    44    12    40    1
    45    18    41    1
    46    19    42    1
    47    20    43    1
    48    21    44    1
    49    22    45    1
    50    23    46    1
    51    26    47    1
    52    30    48    1
    53    31    49    1
