@<TRIPOS>MOLECULE
*****
 17 18 0 0 0
SMALL
GASTEIGER

@<TRIPOS>ATOM
      1 C          -2.4229    0.0308    0.0008 C.2     1  LIG1       -0.0791
      2 C          -1.6433    1.1248   -0.0006 C.2     1  LIG1       -0.0579
      3 C          -0.2600    0.6805    0.0010 C.ar    1  LIG1       -0.0218
      4 C           0.9087    1.4201   -0.0003 C.ar    1  LIG1       -0.0543
      5 C           2.1254    0.7308   -0.0009 C.ar    1  LIG1       -0.0612
      6 C           2.1552   -0.6745   -0.0004 C.ar    1  LIG1       -0.0615
      7 C           0.9699   -1.4136    0.0017 C.ar    1  LIG1       -0.0577
      8 C          -0.2282   -0.7202    0.0027 C.ar    1  LIG1       -0.0365
      9 C          -1.6275   -1.2531    0.0056 C.3     1  LIG1       -0.0086
     10 H          -3.5034    0.0504   -0.0013 H       1  LIG1        0.0575
     11 H          -1.9590    2.1550   -0.0039 H       1  LIG1        0.0621
     12 H           0.8877    2.5044   -0.0012 H       1  LIG1        0.0624
     13 H           3.0598    1.2870   -0.0021 H       1  LIG1        0.0618
     14 H           3.1123   -1.1909   -0.0015 H       1  LIG1        0.0618
     15 H           0.9915   -2.4980    0.0020 H       1  LIG1        0.0621
     16 H          -1.8306   -1.8348    0.9092 H       1  LIG1        0.0356
     17 H          -1.8317   -1.8433   -0.8921 H       1  LIG1        0.0356
@<TRIPOS>BOND
     1     1     2    2
     2     2     3    1
     3     3     4   ar
     4     4     5   ar
     5     5     6   ar
     6     6     7   ar
     7     7     8   ar
     8     3     8   ar
     9     8     9    1
    10     1     9    1
    11     1    10    1
    12     2    11    1
    13     4    12    1
    14     5    13    1
    15     6    14    1
    16     7    15    1
    17     9    16    1
    18     9    17    1
