@<TRIPOS>MOLECULE
*****
 81 84 0 0 0
SMALL
GASTEIGER

@<TRIPOS>ATOM
      1 C           1.5354    1.2385   -0.5799 C.3     1  LIG1       -0.0621
      2 C           1.6730   -0.1997   -1.1276 C.3     1  LIG1       -0.0402
      3 H           2.4174   -0.1610   -1.9335 H       1  LIG1        0.0301
      4 C           0.3252   -0.6526   -1.7368 C.3     1  LIG1       -0.0467
      5 C          -0.1794    0.2809   -2.8503 C.3     1  LIG1       -0.0343
      6 C          -1.4664   -0.2024   -3.4552 C.2     1  LIG1       -0.0853
      7 C          -2.7170    0.1425   -3.0727 C.2     1  LIG1       -0.0796
      8 C          -3.0448    1.0564   -1.9243 C.3     1  LIG1       -0.0440
      9 C          -3.9177   -0.4053   -3.7933 C.3     1  LIG1       -0.0440
     10 C           2.2603   -1.0956    0.0018 C.3     1  LIG1       -0.0322
     11 H           3.0636   -0.4705    0.4220 H       1  LIG1        0.0309
     12 C           1.3509   -1.3498    1.2058 C.3     1  LIG1       -0.0486
     13 C           2.0893   -2.4417    1.9717 C.3     1  LIG1       -0.0431
     14 C           2.5251   -3.4455    0.8781 C.3     1  LIG1       -0.0051
     15 C           2.9503   -2.4851   -0.3154 C.3     1  LIG1       -0.0196
     16 C           4.4805   -2.2376   -0.2459 C.3     1  LIG1       -0.0429
     17 C           5.2817   -3.5280   -0.2760 C.3     1  LIG1       -0.0304
     18 C           4.8587   -4.5094    0.8031 C.2     1  LIG1       -0.0636
     19 C           3.6349   -4.4047    1.3772 C.2     1  LIG1       -0.0633
     20 C           3.2542   -5.2746    2.5510 C.3     1  LIG1       -0.0306
     21 C           4.4391   -5.9475    3.2261 C.3     1  LIG1       -0.0451
     22 C           5.3096   -6.6867    2.1893 C.3     1  LIG1       -0.0242
     23 H           4.6105   -7.3280    1.6302 H       1  LIG1        0.0315
     24 C           5.8944   -5.6267    1.1657 C.3     1  LIG1       -0.0073
     25 C           7.1603   -4.9614    1.7666 C.3     1  LIG1       -0.0413
     26 C           8.1999   -5.9418    2.3083 C.3     1  LIG1       -0.0256
     27 C           7.6359   -6.9142    3.3423 C.3     1  LIG1        0.0607
     28 H           8.4159   -7.6499    3.5747 H       1  LIG1        0.0599
     29 C           6.3664   -7.6653    2.8601 C.3     1  LIG1       -0.0053
     30 C           5.7412   -8.4378    4.0541 C.3     1  LIG1       -0.0572
     31 C           6.7925   -8.7791    1.8632 C.3     1  LIG1       -0.0572
     32 O           7.4082   -6.2193    4.5685 O.3     1  LIG1       -0.3912
     33 C           6.2478   -6.3280   -0.1715 C.3     1  LIG1       -0.0556
     34 C           2.6448   -3.0830   -1.7016 C.3     1  LIG1       -0.0585
     35 C           1.2896   -4.3126    0.5028 C.3     1  LIG1       -0.0553
     36 H           0.7092    1.3118    0.1357 H       1  LIG1        0.0233
     37 H           1.3573    1.9604   -1.3817 H       1  LIG1        0.0233
     38 H           2.4515    1.5651   -0.0772 H       1  LIG1        0.0233
     39 H          -0.4387   -0.7206   -0.9538 H       1  LIG1        0.0271
     40 H           0.4169   -1.6511   -2.1651 H       1  LIG1        0.0271
     41 H           0.5725    0.3478   -3.6466 H       1  LIG1        0.0307
     42 H          -0.3132    1.3019   -2.4849 H       1  LIG1        0.0307
     43 H          -1.3462   -0.8863   -4.2921 H       1  LIG1        0.0571
     44 H          -2.1695    1.5354   -1.4798 H       1  LIG1        0.0274
     45 H          -3.5467    0.4916   -1.1313 H       1  LIG1        0.0274
     46 H          -3.7165    1.8558   -2.2557 H       1  LIG1        0.0274
     47 H          -3.6417   -1.0383   -4.6429 H       1  LIG1        0.0274
     48 H          -4.5344    0.4142   -4.1786 H       1  LIG1        0.0274
     49 H          -4.5261   -1.0071   -3.1098 H       1  LIG1        0.0274
     50 H           0.3553   -1.6904    0.9091 H       1  LIG1        0.0268
     51 H           1.2263   -0.4555    1.8247 H       1  LIG1        0.0268
     52 H           1.4399   -2.8839    2.7346 H       1  LIG1        0.0274
     53 H           2.9615   -2.0174    2.4859 H       1  LIG1        0.0274
     54 H           4.7451   -1.7040    0.6782 H       1  LIG1        0.0274
     55 H           4.7983   -1.5897   -1.0729 H       1  LIG1        0.0274
     56 H           6.3303   -3.2435   -0.1513 H       1  LIG1        0.0310
     57 H           5.2053   -3.9981   -1.2615 H       1  LIG1        0.0310
     58 H           2.5515   -6.0475    2.2183 H       1  LIG1        0.0310
     59 H           2.7416   -4.6805    3.3153 H       1  LIG1        0.0310
     60 H           5.0197   -5.1993    3.7742 H       1  LIG1        0.0271
     61 H           4.0175   -6.6299    3.9686 H       1  LIG1        0.0271
     62 H           6.8705   -4.2643    2.5631 H       1  LIG1        0.0274
     63 H           7.6699   -4.3491    1.0134 H       1  LIG1        0.0274
     64 H           9.0091   -5.3577    2.7647 H       1  LIG1        0.0290
     65 H           8.6500   -6.4931    1.4760 H       1  LIG1        0.0290
     66 H           5.5000   -7.7900    4.9021 H       1  LIG1        0.0236
     67 H           6.4341   -9.1946    4.4415 H       1  LIG1        0.0236
     68 H           4.8250   -8.9552    3.7470 H       1  LIG1        0.0236
     69 H           7.5872   -8.4699    1.1842 H       1  LIG1        0.0236
     70 H           5.9424   -9.1345    1.2708 H       1  LIG1        0.0236
     71 H           7.2000   -9.6502    2.3908 H       1  LIG1        0.0236
     72 H           6.9805   -5.3696    4.3793 H       1  LIG1        0.2098
     73 H           5.3654   -6.8106   -0.6081 H       1  LIG1        0.0238
     74 H           7.0246   -7.0805   -0.0763 H       1  LIG1        0.0238
     75 H           6.6434   -5.6280   -0.9154 H       1  LIG1        0.0238
     76 H           1.5798   -3.2351   -1.8728 H       1  LIG1        0.0235
     77 H           3.0996   -4.0727   -1.8212 H       1  LIG1        0.0235
     78 H           3.0301   -2.4493   -2.5068 H       1  LIG1        0.0235
     79 H           0.5030   -3.7318    0.0114 H       1  LIG1        0.0238
     80 H           0.8269   -4.7615    1.3898 H       1  LIG1        0.0238
     81 H           1.5664   -5.1338   -0.1687 H       1  LIG1        0.0238
@<TRIPOS>BOND
     1     2     4    1
     2     4     5    1
     3     5     6    1
     4     6     7    2
     5     7     8    1
     6     7     9    1
     7    10    12    1
     8    12    13    1
     9    13    14    1
    10    14    15    1
    11    10    15    1
    12    15    16    1
    13    16    17    1
    14    17    18    1
    15    18    19    2
    16    14    19    1
    17    19    20    1
    18    20    21    1
    19    21    22    1
    20    22    24    1
    21    18    24    1
    22    24    25    1
    23    25    26    1
    24    26    27    1
    25    27    29    1
    26    22    29    1
    27     2    10    1
    28    10    11    1
    29    14    35    1
    30    15    34    1
    31    22    23    1
    32    24    33    1
    33    27    28    1
    34    27    32    1
    35    29    30    1
    36    29    31    1
    37     2     3    1
    38     2     1    1
    39     1    36    1
    40     1    37    1
    41     1    38    1
    42     4    39    1
    43     4    40    1
    44     5    41    1
    45     5    42    1
    46     6    43    1
    47     8    44    1
    48     8    45    1
    49     8    46    1
    50     9    47    1
    51     9    48    1
    52     9    49    1
    53    12    50    1
    54    12    51    1
    55    13    52    1
    56    13    53    1
    57    16    54    1
    58    16    55    1
    59    17    56    1
    60    17    57    1
    61    20    58    1
    62    20    59    1
    63    21    60    1
    64    21    61    1
    65    25    62    1
    66    25    63    1
    67    26    64    1
    68    26    65    1
    69    30    66    1
    70    30    67    1
    71    30    68    1
    72    31    69    1
    73    31    70    1
    74    31    71    1
    75    32    72    1
    76    33    73    1
    77    33    74    1
    78    33    75    1
    79    34    76    1
    80    34    77    1
    81    34    78    1
    82    35    79    1
    83    35    80    1
    84    35    81    1
