WARNING: damped steplength 0.00837376 to 0.00212866
@<TRIPOS>MOLECULE
*****
 66 70 0 0 0
SMALL
GASTEIGER

@<TRIPOS>ATOM
      1 C          18.2151   12.0886   -3.1258 C.3     1  LIG1        0.0545
      2 S          17.1613   10.6701   -3.2508 S.O2    1  LIG1       -0.0326
      3 O          16.5904   10.6891   -4.6112 O.2     1  LIG1       -0.1746
      4 O          17.8877    9.5185   -2.7781 O.2     1  LIG1       -0.1746
      5 C          15.8156   10.9904   -2.1247 C.3     1  LIG1        0.0779
      6 C          15.0189   12.2354   -2.4646 C.3     1  LIG1        0.0157
      7 N          13.9120   12.5257   -1.5573 N.3     1  LIG1       -0.3078
      8 C          12.8711   11.4939   -1.5807 C.3     1  LIG1        0.0546
      9 C          11.7799   11.8702   -0.6475 C.ar    1  LIG1        0.1195
     10 C          10.5942   12.5569   -0.7813 C.ar    1  LIG1       -0.0188
     11 C          10.0328   12.6349    0.5204 C.ar    1  LIG1       -0.0156
     12 C          10.9295   12.0268    1.3785 C.ar    1  LIG1        0.1353
     13 O          11.9693   11.5183    0.6548 O.2     1  LIG1       -0.4584
     14 C          11.0029   11.8023    2.8173 C.ar    1  LIG1        0.0181
     15 C          11.8006   10.7764    3.3275 C.ar    1  LIG1       -0.0386
     16 C          11.6827   10.3331    4.6644 C.ar    1  LIG1        0.0411
     17 C          10.9796   11.1225    5.5797 C.ar    1  LIG1        0.0760
     18 C          10.3043   12.2411    5.0963 C.ar    1  LIG1       -0.0349
     19 C          10.2586   12.5483    3.7268 C.ar    1  LIG1       -0.0490
     20 N          10.9232   10.8253    6.8827 N.ar    1  LIG1       -0.2353
     21 C          11.5489    9.7051    7.2678 C.ar    1  LIG1        0.1187
     22 N          12.1679    8.8244    6.4690 N.ar    1  LIG1       -0.2200
     23 C          12.1957    9.1191    5.1563 C.ar    1  LIG1        0.1339
     24 N          12.7402    8.0979    4.3418 N.pl3   1  LIG1       -0.2988
     25 C          12.2864    7.5376    3.1179 C.ar    1  LIG1        0.0340
     26 C          13.0308    6.5203    2.5008 C.ar    1  LIG1       -0.0186
     27 C          12.6465    6.0054    1.2448 C.ar    1  LIG1        0.0843
     28 C          11.5276    6.5168    0.5667 C.ar    1  LIG1        0.1393
     29 C          10.8507    7.5869    1.1317 C.ar    1  LIG1       -0.0167
     30 C          11.1776    8.0221    2.4140 C.ar    1  LIG1       -0.0370
     31 O          11.0710    5.8741   -0.5615 O.3     1  LIG1       -0.4859
     32 C           9.6506    5.9523   -0.8171 C.3     1  LIG1        0.1148
     33 C           8.7560    5.2269    0.1833 C.ar    1  LIG1       -0.0077
     34 C           9.2815    4.4172    1.2024 C.ar    1  LIG1       -0.0201
     35 C           8.4459    3.7688    2.1046 C.ar    1  LIG1        0.1238
     36 C           7.0682    3.8822    2.0110 C.ar    1  LIG1       -0.0264
     37 C           6.5184    4.6714    1.0024 C.ar    1  LIG1       -0.0587
     38 C           7.3550    5.3395    0.0942 C.ar    1  LIG1       -0.0552
     39 F           8.9865    3.0156    3.0716 F       1  LIG1       -0.2055
     40 CL         13.5319    4.6697    0.5909 Cl      1  LIG1       -0.0797
     41 H          19.0352   11.9613   -3.8325 H       1  LIG1        0.0464
     42 H          18.6053   12.1172   -2.1000 H       1  LIG1        0.0464
     43 H          17.6691   12.9953   -3.3622 H       1  LIG1        0.0464
     44 H          16.2572   11.0480   -1.1184 H       1  LIG1        0.0512
     45 H          15.1893   10.0924   -2.1704 H       1  LIG1        0.0512
     46 H          14.6506   12.1968   -3.4968 H       1  LIG1        0.0440
     47 H          15.6850   13.1128   -2.4292 H       1  LIG1        0.0440
     48 H          14.2363   12.6352   -0.5945 H       1  LIG1        0.1224
     49 H          13.2668   10.5219   -1.2620 H       1  LIG1        0.0504
     50 H          12.4749   11.3853   -2.5960 H       1  LIG1        0.0504
     51 H          10.2025   12.9742   -1.6994 H       1  LIG1        0.0652
     52 H           9.0982   13.1041    0.7937 H       1  LIG1        0.0655
     53 H          12.4631   10.2314    2.6572 H       1  LIG1        0.0632
     54 H           9.7649   12.8756    5.7997 H       1  LIG1        0.0639
     55 H           9.6521   13.3872    3.3932 H       1  LIG1        0.0625
     56 H          11.5493    9.4879    8.3322 H       1  LIG1        0.1048
     57 H          13.0721    7.3726    4.9783 H       1  LIG1        0.1536
     58 H          13.8986    6.1041    3.0104 H       1  LIG1        0.0652
     59 H          10.0220    8.0826    0.6419 H       1  LIG1        0.0655
     60 H          10.5069    8.7697    2.8322 H       1  LIG1        0.0637
     61 H           9.4871    5.5043   -1.8052 H       1  LIG1        0.0748
     62 H           9.3464    7.0007   -0.9312 H       1  LIG1        0.0748
     63 H          10.3501    4.2718    1.3242 H       1  LIG1        0.0650
     64 H           6.4397    3.3479    2.7165 H       1  LIG1        0.0646
     65 H           5.4367    4.7593    0.9210 H       1  LIG1        0.0619
     66 H           6.8970    5.9403   -0.6900 H       1  LIG1        0.0621
@<TRIPOS>BOND
     1     1     2    1
     2     2     3    2
     3     2     4    2
     4     2     5    1
     5     5     6    1
     6     6     7    1
     7     7     8    1
     8     8     9    1
     9     9    10   ar
    10    10    11   ar
    11    11    12   ar
    12    12    13   ar
    13     9    13   ar
    14    12    14    1
    15    14    15   ar
    16    15    16   ar
    17    16    17   ar
    18    17    18   ar
    19    18    19   ar
    20    14    19   ar
    21    17    20   ar
    22    20    21   ar
    23    21    22   ar
    24    22    23   ar
    25    16    23   ar
    26    23    24    1
    27    24    25    1
    28    25    26   ar
    29    26    27   ar
    30    27    28   ar
    31    28    29   ar
    32    29    30   ar
    33    25    30   ar
    34    28    31    1
    35    31    32    1
    36    32    33    1
    37    33    34   ar
    38    34    35   ar
    39    35    36   ar
    40    36    37   ar
    41    37    38   ar
    42    33    38   ar
    43    35    39    1
    44    27    40    1
    45     1    41    1
    46     1    42    1
    47     1    43    1
    48     5    44    1
    49     5    45    1
    50     6    46    1
    51     6    47    1
    52     7    48    1
    53     8    49    1
    54     8    50    1
    55    10    51    1
    56    11    52    1
    57    15    53    1
    58    18    54    1
    59    19    55    1
    60    21    56    1
    61    24    57    1
    62    26    58    1
    63    29    59    1
    64    30    60    1
    65    32    61    1
    66    32    62    1
    67    34    63    1
    68    36    64    1
    69    37    65    1
    70    38    66    1
