@<TRIPOS>MOLECULE
*****
 65 67 0 0 0
SMALL
GASTEIGER

@<TRIPOS>ATOM
      1 C          10.7211   -3.9091   -0.0089 C.3     1  LIG1       -0.0645
      2 C          10.2590   -2.8467    0.9786 C.3     1  LIG1       -0.0432
      3 C           9.4884   -1.6891    0.3235 C.3     1  LIG1        0.0534
      4 H          10.1496   -1.2020   -0.4057 H       1  LIG1        0.0410
      5 C           9.0738   -0.6739    1.3923 C.3     1  LIG1       -0.0523
      6 C           8.2295   -2.1524   -0.3848 C.2     1  LIG1        0.3102
      7 O           7.5286   -3.1007   -0.0249 O.2     1  LIG1       -0.2505
      8 O           7.9404   -1.3057   -1.4205 O.3     1  LIG1       -0.4605
      9 C           6.5861   -1.3797   -1.9322 C.3     1  LIG1        0.1106
     10 H           6.2267   -2.4126   -1.8453 H       1  LIG1        0.0740
     11 C           5.6998   -0.5140   -1.0175 C.3     1  LIG1       -0.0090
     12 C           5.4694    0.9442   -1.4559 C.3     1  LIG1       -0.0218
     13 H           4.3974    1.0488   -1.6743 H       1  LIG1        0.0342
     14 C           6.2011    1.3686   -2.6960 C.2     1  LIG1       -0.0775
     15 C           6.6942    0.5130   -3.6054 C.2     1  LIG1       -0.0444
     16 C           6.5318   -0.9882   -3.4345 C.3     1  LIG1        0.0243
     17 H           5.5149   -1.2194   -3.7867 H       1  LIG1        0.0388
     18 C           7.5251   -1.8154   -4.3256 C.3     1  LIG1       -0.0247
     19 H           8.5359   -1.6805   -3.9121 H       1  LIG1        0.0313
     20 C           7.5671   -1.2686   -5.7853 C.3     1  LIG1       -0.0219
     21 H           8.4624   -1.6799   -6.2698 H       1  LIG1        0.0343
     22 C           7.7213    0.2281   -5.8044 C.2     1  LIG1       -0.0806
     23 C           7.3267    1.0221   -4.8030 C.2     1  LIG1       -0.0621
     24 C           6.3525   -1.6400   -6.6445 C.3     1  LIG1       -0.0587
     25 C           7.2019   -3.3305   -4.2566 C.3     1  LIG1       -0.0457
     26 C           8.1276   -4.2375   -5.0852 C.3     1  LIG1       -0.0153
     27 C           7.7315   -5.7202   -4.9577 C.3     1  LIG1        0.1054
     28 H           7.7785   -6.0006   -3.8984 H       1  LIG1        0.0734
     29 C           8.6340   -6.6109   -5.7931 C.3     1  LIG1        0.0109
     30 C           8.1704   -8.0477   -5.6455 C.3     1  LIG1        0.0686
     31 H           8.7653   -8.6826   -6.3119 H       1  LIG1        0.0600
     32 C           6.7050   -8.2150   -5.9982 C.3     1  LIG1        0.0710
     33 C           5.8031   -7.0581   -5.6545 C.2     1  LIG1        0.3098
     34 O           4.5833   -7.1755   -5.7214 O.2     1  LIG1       -0.2507
     35 O           6.3613   -5.8604   -5.3814 O.3     1  LIG1       -0.4612
     36 O           8.4529   -8.5179   -4.3269 O.3     1  LIG1       -0.3911
     37 C           5.7705    1.9200   -0.3133 C.3     1  LIG1       -0.0588
     38 H          11.2811   -4.6874    0.5202 H       1  LIG1        0.0230
     39 H          11.3764   -3.4794   -0.7722 H       1  LIG1        0.0230
     40 H           9.8764   -4.3922   -0.5085 H       1  LIG1        0.0230
     41 H          11.1430   -2.4427    1.4854 H       1  LIG1        0.0270
     42 H           9.6435   -3.3253    1.7509 H       1  LIG1        0.0270
     43 H           8.5475    0.1767    0.9462 H       1  LIG1        0.0238
     44 H           9.9461   -0.2892    1.9298 H       1  LIG1        0.0238
     45 H           8.3959   -1.1255    2.1270 H       1  LIG1        0.0238
     46 H           6.1052   -0.5313    0.0029 H       1  LIG1        0.0307
     47 H           4.7157   -0.9947   -0.9440 H       1  LIG1        0.0307
     48 H           6.2700    2.4412   -2.8713 H       1  LIG1        0.0578
     49 H           8.1547    0.6761   -6.6958 H       1  LIG1        0.0575
     50 H           7.4520    2.0982   -4.9038 H       1  LIG1        0.0617
     51 H           6.2931   -2.7181   -6.8171 H       1  LIG1        0.0235
     52 H           6.4108   -1.1656   -7.6315 H       1  LIG1        0.0235
     53 H           5.4131   -1.3227   -6.1802 H       1  LIG1        0.0235
     54 H           6.1586   -3.4854   -4.5569 H       1  LIG1        0.0269
     55 H           7.2745   -3.6682   -3.2175 H       1  LIG1        0.0269
     56 H           9.1634   -4.1014   -4.7524 H       1  LIG1        0.0301
     57 H           8.0819   -3.9531   -6.1412 H       1  LIG1        0.0301
     58 H           9.6739   -6.5074   -5.4642 H       1  LIG1        0.0326
     59 H           8.5754   -6.3232   -6.8504 H       1  LIG1        0.0326
     60 H           6.3016   -9.1082   -5.5069 H       1  LIG1        0.0403
     61 H           6.6174   -8.3441   -7.0838 H       1  LIG1        0.0403
     62 H           7.7039   -8.3313   -3.7347 H       1  LIG1        0.2098
     63 H           5.2898    1.6013    0.6177 H       1  LIG1        0.0235
     64 H           5.3869    2.9194   -0.5518 H       1  LIG1        0.0235
     65 H           6.8472    2.0098   -0.1319 H       1  LIG1        0.0235
@<TRIPOS>BOND
     1     1     2    1
     2     3     5    1
     3     3     6    1
     4     6     7    2
     5     6     8    1
     6     9    11    1
     7    11    12    1
     8    12    13    1
     9    12    14    1
    10    14    15    2
    11    15    16    1
    12    16    17    1
    13     9    16    1
    14    16    18    1
    15    18    19    1
    16    18    20    1
    17    20    21    1
    18    20    22    1
    19    22    23    2
    20    15    23    1
    21    20    24    1
    22    18    25    1
    23    25    26    1
    24    26    27    1
    25    27    28    1
    26    27    29    1
    27    29    30    1
    28    30    32    1
    29    32    33    1
    30    33    34    2
    31    33    35    1
    32    27    35    1
    33    12    37    1
    34     9    10    1
    35     9     8    1
    36     3     4    1
    37     3     2    1
    38    30    36    1
    39    30    31    1
    40     1    38    1
    41     1    39    1
    42     1    40    1
    43     2    41    1
    44     2    42    1
    45     5    43    1
    46     5    44    1
    47     5    45    1
    48    11    46    1
    49    11    47    1
    50    14    48    1
    51    22    49    1
    52    23    50    1
    53    24    51    1
    54    24    52    1
    55    24    53    1
    56    25    54    1
    57    25    55    1
    58    26    56    1
    59    26    57    1
    60    29    58    1
    61    29    59    1
    62    32    60    1
    63    32    61    1
    64    36    62    1
    65    37    63    1
    66    37    64    1
    67    37    65    1
