@<TRIPOS>MOLECULE
*****
 94 97 0 0 0
SMALL
GASTEIGER

@<TRIPOS>ATOM
      1 C           4.9117    0.6538   -2.5688 C.3     1  LIG1       -0.0274
      2 C           5.7466    0.8007   -1.2970 C.3     1  LIG1        0.1040
      3 C           4.8216    1.1673   -0.1089 C.3     1  LIG1        0.0026
      4 C           5.5932    1.5448    1.1250 C.2     1  LIG1       -0.0805
      5 C           5.6327    2.8109    1.5654 C.2     1  LIG1       -0.0656
      6 C           6.7246    3.2887    2.3811 C.2     1  LIG1       -0.0621
      7 C           6.9893    4.6043    2.4260 C.2     1  LIG1       -0.0618
      8 C           8.3565    5.0478    2.5683 C.2     1  LIG1       -0.0618
      9 C           8.7589    6.1978    2.0026 C.2     1  LIG1       -0.0620
     10 C          10.1218    6.3552    1.5572 C.2     1  LIG1       -0.0633
     11 C          11.2050    6.0499    2.2839 C.2     1  LIG1       -0.0555
     12 C          12.6039    5.9716    1.7526 C.3     1  LIG1        0.0826
     13 C          12.7155    5.0975    0.4822 C.3     1  LIG1        0.0045
     14 C          12.3512    3.5643    0.5347 C.3     1  LIG1        0.0799
     15 C          13.4920    2.5176   -0.6602 C.3     1  LIG1        0.1084
     16 C          14.3933    0.9404    0.0270 C.3     1  LIG1        0.0754
     17 C          13.8667    0.3023    1.7563 C.3     1  LIG1        0.0282
     18 C          12.9122    1.4853    2.9721 C.3     1  LIG1        0.1723
     19 O          12.1410    3.0097    2.2829 O.3     1  LIG1       -0.3444
     20 C          13.9265    2.0468    3.9015 C.3     1  LIG1        0.0274
     21 C          14.8732    2.3635    2.8220 C.3     1  LIG1        0.0626
     22 C          13.9903    2.5086    1.4650 C.3     1  LIG1        0.0025
     23 C          12.2765    1.4598    0.9295 C.3     1  LIG1        0.0915
     24 C          11.0933    1.2425   -0.3380 C.3     1  LIG1        0.1040
     25 O          12.2266    0.4618   -0.1376 O.3     1  LIG1       -0.3638
     26 C           9.8105    0.5939    0.0259 C.2     1  LIG1       -0.0464
     27 C           8.5408    0.8069   -0.3537 C.2     1  LIG1        0.0211
     28 C           8.0472    1.8580   -1.2634 C.2     1  LIG1        0.3320
     29 O           8.8041    2.7082   -1.7214 O.2     1  LIG1       -0.2456
     30 O           6.7216    1.8538   -1.5705 O.3     1  LIG1       -0.4582
     31 O          15.5443    3.5880    3.1342 O.3     1  LIG1       -0.3915
     32 O          11.9572    0.7692    3.7545 O.3     1  LIG1       -0.3643
     33 O          14.4027   -0.1264   -0.9331 O.3     1  LIG1       -0.3907
     34 C          14.5075    3.4225   -1.3796 C.2     1  LIG1        0.3128
     35 O          15.6205    3.6932   -0.9713 O.2     1  LIG1       -0.2505
     36 O          14.0237    3.9677   -2.5221 O.3     1  LIG1       -0.4803
     37 O          13.0768    7.2841    1.3781 O.3     1  LIG1       -0.3413
     38 C          13.5441    8.0850    2.4842 C.3     1  LIG1        0.1875
     39 C          14.3587    9.2861    1.9257 C.3     1  LIG1        0.1234
     40 C          13.4159   10.2687    1.1969 C.3     1  LIG1        0.0646
     41 C          12.2722   10.6869    2.1455 C.3     1  LIG1        0.0987
     42 C          11.5641    9.4140    2.6445 C.3     1  LIG1        0.0863
     43 O          12.4739    8.5280    3.3131 O.3     1  LIG1       -0.3431
     44 C          10.4366    9.7071    3.6245 C.3     1  LIG1       -0.0361
     45 O          12.7950   11.4343    3.2506 O.3     1  LIG1       -0.3876
     46 N          14.1496   11.4336    0.6523 N.3     1  LIG1       -0.3229
     47 O          15.3816    8.8340    1.0159 O.3     1  LIG1       -0.3851
     48 H           4.1496   -0.1233   -2.4568 H       1  LIG1        0.0265
     49 H           5.5529    0.3964   -3.4186 H       1  LIG1        0.0265
     50 H           4.4167    1.5976   -2.8246 H       1  LIG1        0.0265
     51 H           6.2419   -0.1589   -1.1251 H       1  LIG1        0.0734
     52 H           4.1649    0.3212    0.1240 H       1  LIG1        0.0343
     53 H           4.1719    2.0014   -0.4038 H       1  LIG1        0.0343
     54 H           6.2476    0.7932    1.5565 H       1  LIG1        0.0573
     55 H           4.9927    3.5632    1.1068 H       1  LIG1        0.0614
     56 H           7.4821    2.5665    2.6813 H       1  LIG1        0.0617
     57 H           6.2715    5.3270    2.0444 H       1  LIG1        0.0618
     58 H           9.0941    4.3052    2.8722 H       1  LIG1        0.0618
     59 H           8.0406    6.9055    1.5950 H       1  LIG1        0.0617
     60 H          10.2264    6.6698    0.5204 H       1  LIG1        0.0615
     61 H          11.0955    5.7733    3.3304 H       1  LIG1        0.0598
     62 H          13.2648    5.5556    2.5213 H       1  LIG1        0.0642
     63 H          13.7507    5.2056    0.1439 H       1  LIG1        0.0319
     64 H          12.1449    5.5435   -0.3451 H       1  LIG1        0.0319
     65 H          11.3058    3.5025    0.2065 H       1  LIG1        0.0607
     66 H          12.9049    2.1524   -1.5084 H       1  LIG1        0.0465
     67 H          15.4701    1.1632    0.1114 H       1  LIG1        0.0604
     68 H          14.7594   -0.0956    2.2582 H       1  LIG1        0.0342
     69 H          13.2467   -0.6007    1.6249 H       1  LIG1        0.0342
     70 H          14.3212    1.3144    4.6117 H       1  LIG1        0.0342
     71 H          13.5616    2.9174    4.4551 H       1  LIG1        0.0342
     72 H          15.6720    1.6229    2.7184 H       1  LIG1        0.0596
     73 H          14.8272    2.6888    0.7950 H       1  LIG1        0.0316
     74 H          13.8563    3.5816    1.6595 H       1  LIG1        0.0316
     75 H          11.5065    1.2892    1.7021 H       1  LIG1        0.0626
     76 H          11.0375    1.8865   -1.2023 H       1  LIG1        0.0667
     77 H           9.9371   -0.2507    0.7061 H       1  LIG1        0.0601
     78 H           7.8112    0.1391    0.0762 H       1  LIG1        0.0686
     79 H          16.1506    3.7977    2.4000 H       1  LIG1        0.2098
     80 H          11.7319   -0.0474    3.2815 H       1  LIG1        0.2128
     81 H          13.4804   -0.4384   -0.9853 H       1  LIG1        0.2098
     82 H          13.1362    3.6721   -2.8009 H       1  LIG1        0.2951
     83 H          14.2255    7.4750    3.0900 H       1  LIG1        0.0937
     84 H          14.8576    9.8060    2.7533 H       1  LIG1        0.0660
     85 H          12.9913    9.7510    0.3266 H       1  LIG1        0.0512
     86 H          11.5641   11.3316    1.6105 H       1  LIG1        0.0635
     87 H          11.1316    8.9035    1.7776 H       1  LIG1        0.0620
     88 H          10.8164   10.1513    4.5501 H       1  LIG1        0.0255
     89 H           9.9388    8.7745    3.9134 H       1  LIG1        0.0255
     90 H           9.6913   10.3758    3.1849 H       1  LIG1        0.0255
     91 H          12.0565   11.9106    3.6632 H       1  LIG1        0.2100
     92 H          13.6092   11.8682   -0.0909 H       1  LIG1        0.1186
     93 H          15.0179   11.0891    0.2370 H       1  LIG1        0.1186
     94 H          14.9840    8.0993    0.5120 H       1  LIG1        0.2101
@<TRIPOS>BOND
     1     1     2    1
     2     2     3    1
     3     3     4    1
     4     4     5    2
     5     5     6    1
     6     6     7    2
     7     7     8    1
     8     8     9    2
     9     9    10    1
    10    10    11    2
    11    11    12    1
    12    12    13    1
    13    13    14    1
    14    14    15    1
    15    15    16    1
    16    16    17    1
    17    17    18    1
    18    18    19    1
    19    14    19    1
    20    18    20    1
    21    20    21    1
    22    21    22    1
    23    22    23    1
    24    23    24    1
    25    24    25    1
    26    23    25    1
    27    24    26    1
    28    26    27    2
    29    27    28    1
    30    28    29    2
    31    28    30    1
    32     2    30    1
    33    21    31    1
    34    18    32    1
    35    16    33    1
    36    15    34    1
    37    34    35    2
    38    34    36    1
    39    12    37    1
    40    37    38    1
    41    38    39    1
    42    39    40    1
    43    40    41    1
    44    41    42    1
    45    42    43    1
    46    38    43    1
    47    42    44    1
    48    41    45    1
    49    40    46    1
    50    39    47    1
    51     1    48    1
    52     1    49    1
    53     1    50    1
    54     2    51    1
    55     3    52    1
    56     3    53    1
    57     4    54    1
    58     5    55    1
    59     6    56    1
    60     7    57    1
    61     8    58    1
    62     9    59    1
    63    10    60    1
    64    11    61    1
    65    12    62    1
    66    13    63    1
    67    13    64    1
    68    14    65    1
    69    15    66    1
    70    16    67    1
    71    17    68    1
    72    17    69    1
    73    20    70    1
    74    20    71    1
    75    21    72    1
    76    22    73    1
    77    22    74    1
    78    23    75    1
    79    24    76    1
    80    26    77    1
    81    27    78    1
    82    31    79    1
    83    32    80    1
    84    33    81    1
    85    36    82    1
    86    38    83    1
    87    39    84    1
    88    40    85    1
    89    41    86    1
    90    42    87    1
    91    44    88    1
    92    44    89    1
    93    44    90    1
    94    45    91    1
    95    46    92    1
    96    46    93    1
    97    47    94    1
