@<TRIPOS>MOLECULE
*****
 19 20 0 0 0
SMALL
GASTEIGER

@<TRIPOS>ATOM
      1 C           0.9887   -0.1549    0.0085 C.3     1  LIG1        0.0119
      2 N           2.4340   -0.1223    0.0083 N.ar    1  LIG1       -0.3497
      3 C           3.1868    1.0224    0.0085 C.ar    1  LIG1        0.0054
      4 C           4.5126    0.6548    0.0086 C.ar    1  LIG1       -0.0365
      5 C           4.5694   -0.7655    0.0086 C.ar    1  LIG1       -0.0002
      6 C           5.6257   -1.6973    0.0090 C.ar    1  LIG1       -0.0526
      7 C           5.3366   -3.0659    0.0090 C.ar    1  LIG1       -0.0611
      8 C           4.0174   -3.5108    0.0084 C.ar    1  LIG1       -0.0598
      9 C           2.9513   -2.6054    0.0079 C.ar    1  LIG1       -0.0376
     10 C           3.2521   -1.2338    0.0082 C.ar    1  LIG1        0.0488
     11 H           0.5994    0.8665    0.0091 H       1  LIG1        0.0456
     12 H           0.6541   -0.6777    0.9081 H       1  LIG1        0.0456
     13 H           0.6538   -0.6768   -0.8915 H       1  LIG1        0.0456
     14 H           2.7263    2.0016    0.0086 H       1  LIG1        0.0809
     15 H           5.3551    1.3335    0.0088 H       1  LIG1        0.0639
     16 H           6.6568   -1.3569    0.0095 H       1  LIG1        0.0624
     17 H           6.1510   -3.7859    0.0095 H       1  LIG1        0.0618
     18 H           3.8118   -4.5787    0.0083 H       1  LIG1        0.0618
     19 H           1.9267   -2.9622    0.0074 H       1  LIG1        0.0638
@<TRIPOS>BOND
     1     1     2    1
     2     2     3   ar
     3     3     4   ar
     4     4     5   ar
     5     5     6   ar
     6     6     7   ar
     7     7     8   ar
     8     8     9   ar
     9     9    10   ar
    10     5    10   ar
    11     2    10   ar
    12     1    11    1
    13     1    12    1
    14     1    13    1
    15     3    14    1
    16     4    15    1
    17     6    16    1
    18     7    17    1
    19     8    18    1
    20     9    19    1
