@<TRIPOS>MOLECULE
*****
 128 129 0 0 0
SMALL
GASTEIGER

@<TRIPOS>ATOM
      1 C          22.0629  -26.7551  -19.3861 C.3     1  LIG1       -0.0653
      2 C          22.9472  -26.3279  -18.2149 C.3     1  LIG1       -0.0559
      3 C          22.1388  -25.8513  -16.9980 C.3     1  LIG1       -0.0533
      4 C          23.0400  -25.4161  -15.8246 C.3     1  LIG1       -0.0531
      5 C          22.2285  -24.9312  -14.6044 C.3     1  LIG1       -0.0530
      6 C          23.1054  -24.5670  -13.3916 C.3     1  LIG1       -0.0528
      7 C          22.3275  -24.0746  -12.1458 C.3     1  LIG1       -0.0496
      8 C          21.4728  -22.8104  -12.3486 C.3     1  LIG1       -0.0348
      9 C          20.6688  -22.3250  -11.1459 C.2     1  LIG1       -0.0879
     10 C          21.0030  -22.3944   -9.8418 C.2     1  LIG1       -0.0879
     11 C          20.1307  -21.9528   -8.6591 C.3     1  LIG1       -0.0348
     12 C          20.4720  -20.5037   -8.2438 C.3     1  LIG1       -0.0496
     13 C          19.6805  -19.7411   -7.1519 C.3     1  LIG1       -0.0528
     14 C          20.1351  -18.2358   -7.0624 C.3     1  LIG1       -0.0530
     15 C          21.6213  -18.0225   -6.7307 C.3     1  LIG1       -0.0526
     16 C          22.1521  -16.5665   -6.6702 C.3     1  LIG1       -0.0430
     17 C          22.2623  -15.7055   -7.9411 C.3     1  LIG1        0.0449
     18 C          21.0740  -15.1010   -8.6863 C.2     1  LIG1        0.3072
     19 O          20.5749  -15.6537   -9.6739 O.2     1  LIG1       -0.2509
     20 O          20.7536  -13.8377   -8.3030 O.3     1  LIG1       -0.4608
     21 C          20.3224  -12.9030   -9.3291 C.3     1  LIG1        0.1315
     22 C          19.1440  -13.2223  -10.2702 C.3     1  LIG1        0.1605
     23 H          19.3121  -14.1261  -10.8567 H       1  LIG1        0.0792
     24 C          17.7796  -13.3471   -9.5732 C.3     1  LIG1        0.0993
     25 O          17.6313  -14.4899   -8.7563 O.3     1  LIG1       -0.2828
     26 P          16.2936  -14.6665   -7.8807 P.3     1  LIG1        0.4752
     27 O          15.9580  -16.0750   -7.5286 O.2     1  LIG1       -0.2273
     28 O          16.5382  -13.7295   -6.6121 O.3     1  LIG1       -0.3025
     29 O          15.1320  -13.8868   -8.6757 O.3     1  LIG1       -0.2813
     30 C          14.3106  -14.5720   -9.6087 C.3     1  LIG1        0.0989
     31 C          15.1125  -15.0299  -10.8388 C.3     1  LIG1       -0.0063
     32 N          14.2978  -15.6789  -11.9525 N.4     1  LIG1        0.2385
     33 C          13.6162  -16.9108  -11.3659 C.3     1  LIG1       -0.0417
     34 C          13.3384  -14.6653  -12.5764 C.3     1  LIG1       -0.0417
     35 C          15.2648  -16.0773  -13.0817 C.3     1  LIG1       -0.0417
     36 O          18.9913  -12.0635  -11.1553 O.3     1  LIG1       -0.4555
     37 C          19.8958  -12.0184  -12.2438 C.2     1  LIG1        0.3078
     38 O          20.3851  -12.9502  -12.7819 O.2     1  LIG1       -0.2508
     39 C          20.2178  -10.5342  -12.4318 C.3     1  LIG1        0.0489
     40 C          19.9588  -10.0114  -13.8615 C.3     1  LIG1       -0.0176
     41 C          20.3274   -8.5429  -14.0071 C.ar    1  LIG1       -0.0468
     42 C          19.3782   -7.5449  -13.7475 C.ar    1  LIG1       -0.0580
     43 C          19.7101   -6.1923  -13.8695 C.ar    1  LIG1       -0.0543
     44 C          21.0032   -5.8100  -14.2330 C.ar    1  LIG1       -0.0250
     45 C          21.3993   -4.4065  -14.3608 C.2     1  LIG1       -0.0546
     46 C          20.9376   -3.4147  -13.5832 C.2     1  LIG1       -0.0612
     47 C          21.3814   -2.0458  -13.6919 C.2     1  LIG1       -0.0617
     48 C          22.6237   -1.6954  -14.0510 C.2     1  LIG1       -0.0617
     49 C          23.0328   -0.3240  -14.1347 C.2     1  LIG1       -0.0612
     50 C          23.5468    0.2086  -15.2524 C.2     1  LIG1       -0.0546
     51 C          23.9799    1.6082  -15.3218 C.ar    1  LIG1       -0.0250
     52 C          24.5370    2.2491  -14.2063 C.ar    1  LIG1       -0.0546
     53 C          24.9601    3.5736  -14.2812 C.ar    1  LIG1       -0.0612
     54 C          24.8495    4.2683  -15.4813 C.ar    1  LIG1       -0.0617
     55 C          24.3121    3.6394  -16.6042 C.ar    1  LIG1       -0.0612
     56 C          23.8811    2.3122  -16.5272 C.ar    1  LIG1       -0.0546
     57 C          21.9483   -6.8025  -14.5150 C.ar    1  LIG1       -0.0543
     58 C          21.6179   -8.1569  -14.3931 C.ar    1  LIG1       -0.0580
     59 H          22.1834  -26.0690  -20.2321 H       1  LIG1        0.0230
     60 H          21.0009  -26.7852  -19.1245 H       1  LIG1        0.0230
     61 H          22.3509  -27.7515  -19.7408 H       1  LIG1        0.0230
     62 H          23.6207  -25.5311  -18.5525 H       1  LIG1        0.0263
     63 H          23.5805  -27.1744  -17.9241 H       1  LIG1        0.0263
     64 H          21.4803  -26.6648  -16.6689 H       1  LIG1        0.0265
     65 H          21.4946  -25.0163  -17.2983 H       1  LIG1        0.0265
     66 H          23.7020  -24.6091  -16.1618 H       1  LIG1        0.0265
     67 H          23.6795  -26.2575  -15.5325 H       1  LIG1        0.0265
     68 H          21.5232  -25.7148  -14.3044 H       1  LIG1        0.0265
     69 H          21.6418  -24.0586  -14.9076 H       1  LIG1        0.0265
     70 H          23.8508  -23.8149  -13.6771 H       1  LIG1        0.0265
     71 H          23.6706  -25.4611  -13.0919 H       1  LIG1        0.0265
     72 H          23.0621  -23.8886  -11.3521 H       1  LIG1        0.0268
     73 H          21.6821  -24.8876  -11.7923 H       1  LIG1        0.0268
     74 H          20.7418  -23.0217  -13.1388 H       1  LIG1        0.0307
     75 H          22.0965  -21.9875  -12.7206 H       1  LIG1        0.0307
     76 H          19.7117  -21.8745  -11.4065 H       1  LIG1        0.0569
     77 H          21.9766  -22.8007   -9.5725 H       1  LIG1        0.0569
     78 H          20.3511  -22.6409   -7.8306 H       1  LIG1        0.0307
     79 H          19.0699  -22.0950   -8.9023 H       1  LIG1        0.0307
     80 H          20.4402  -19.8854   -9.1465 H       1  LIG1        0.0268
     81 H          21.5070  -20.5443   -7.8935 H       1  LIG1        0.0268
     82 H          19.8099  -20.2202   -6.1727 H       1  LIG1        0.0265
     83 H          18.6007  -19.7563   -7.3605 H       1  LIG1        0.0265
     84 H          19.5344  -17.7308   -6.2944 H       1  LIG1        0.0265
     85 H          19.9076  -17.7494   -8.0151 H       1  LIG1        0.0265
     86 H          22.2564  -18.5882   -7.4199 H       1  LIG1        0.0265
     87 H          21.7964  -18.4647   -5.7376 H       1  LIG1        0.0265
     88 H          23.2028  -16.6944   -6.3538 H       1  LIG1        0.0270
     89 H          21.6799  -16.0146   -5.8509 H       1  LIG1        0.0270
     90 H          22.8131  -16.2852   -8.6934 H       1  LIG1        0.0377
     91 H          22.9383  -14.8653   -7.7153 H       1  LIG1        0.0377
     92 H          21.2025  -12.6775   -9.9470 H       1  LIG1        0.0736
     93 H          20.1044  -11.9467   -8.8294 H       1  LIG1        0.0736
     94 H          17.0743  -13.4550  -10.3910 H       1  LIG1        0.0604
     95 H          17.4680  -12.4311   -9.0578 H       1  LIG1        0.0604
     96 H          16.8053  -14.2404   -5.8233 H       1  LIG1        0.2220
     97 H          13.5432  -13.8549   -9.9164 H       1  LIG1        0.0619
     98 H          13.7959  -15.3966   -9.1046 H       1  LIG1        0.0619
     99 H          15.8895  -15.7447  -10.5435 H       1  LIG1        0.0838
    100 H          15.5883  -14.1717  -11.3112 H       1  LIG1        0.0838
    101 H          12.8204  -16.5809  -10.6911 H       1  LIG1        0.0778
    102 H          14.3675  -17.4681  -10.7922 H       1  LIG1        0.0778
    103 H          13.2108  -17.5352  -12.1638 H       1  LIG1        0.0778
    104 H          12.5624  -14.3953  -11.8592 H       1  LIG1        0.0778
    105 H          12.9031  -15.0957  -13.4831 H       1  LIG1        0.0778
    106 H          13.9265  -13.7780  -12.8456 H       1  LIG1        0.0778
    107 H          16.0194  -16.7612  -12.6880 H       1  LIG1        0.0778
    108 H          15.7395  -15.1606  -13.4526 H       1  LIG1        0.0778
    109 H          14.6878  -16.5419  -13.8876 H       1  LIG1        0.0778
    110 H          21.2713  -10.4076  -12.1784 H       1  LIG1        0.0381
    111 H          19.6553   -9.9018  -11.7283 H       1  LIG1        0.0381
    112 H          18.9017  -10.1334  -14.1234 H       1  LIG1        0.0318
    113 H          20.5201  -10.5961  -14.5961 H       1  LIG1        0.0318
    114 H          18.3649   -7.8045  -13.4544 H       1  LIG1        0.0620
    115 H          18.9458   -5.4413  -13.6837 H       1  LIG1        0.0624
    116 H          22.1559   -4.2044  -15.1162 H       1  LIG1        0.0623
    117 H          20.1825   -3.5953  -12.8222 H       1  LIG1        0.0618
    118 H          20.6469   -1.2823  -13.4393 H       1  LIG1        0.0618
    119 H          23.3802   -2.4379  -14.2924 H       1  LIG1        0.0618
    120 H          22.8930    0.2647  -13.2319 H       1  LIG1        0.0618
    121 H          23.6353   -0.3802  -16.1628 H       1  LIG1        0.0623
    122 H          24.6535    1.7219  -13.2630 H       1  LIG1        0.0623
    123 H          25.3784    4.0536  -13.4013 H       1  LIG1        0.0618
    124 H          25.1864    5.2992  -15.5408 H       1  LIG1        0.0618
    125 H          24.2278    4.1844  -17.5406 H       1  LIG1        0.0618
    126 H          23.4584    1.8411  -17.4121 H       1  LIG1        0.0623
    127 H          22.9566   -6.5257  -14.8202 H       1  LIG1        0.0624
    128 H          22.3828   -8.8999  -14.6082 H       1  LIG1        0.0620
@<TRIPOS>BOND
     1     1     2    1
     2     2     3    1
     3     3     4    1
     4     4     5    1
     5     5     6    1
     6     6     7    1
     7     7     8    1
     8     8     9    1
     9     9    10    2
    10    10    11    1
    11    11    12    1
    12    12    13    1
    13    13    14    1
    14    14    15    1
    15    15    16    1
    16    16    17    1
    17    17    18    1
    18    18    19    2
    19    18    20    1
    20    20    21    1
    21    21    22    1
    22    22    23    1
    23    22    24    1
    24    24    25    1
    25    25    26    1
    26    26    27    2
    27    26    28    1
    28    26    29    1
    29    29    30    1
    30    30    31    1
    31    31    32    1
    32    32    33    1
    33    32    34    1
    34    32    35    1
    35    22    36    1
    36    36    37    1
    37    37    38    2
    38    37    39    1
    39    39    40    1
    40    40    41    1
    41    41    42   ar
    42    42    43   ar
    43    43    44   ar
    44    44    45    1
    45    45    46    2
    46    46    47    1
    47    47    48    2
    48    48    49    1
    49    49    50    2
    50    50    51    1
    51    51    52   ar
    52    52    53   ar
    53    53    54   ar
    54    54    55   ar
    55    55    56   ar
    56    51    56   ar
    57    44    57   ar
    58    57    58   ar
    59    41    58   ar
    60     1    59    1
    61     1    60    1
    62     1    61    1
    63     2    62    1
    64     2    63    1
    65     3    64    1
    66     3    65    1
    67     4    66    1
    68     4    67    1
    69     5    68    1
    70     5    69    1
    71     6    70    1
    72     6    71    1
    73     7    72    1
    74     7    73    1
    75     8    74    1
    76     8    75    1
    77     9    76    1
    78    10    77    1
    79    11    78    1
    80    11    79    1
    81    12    80    1
    82    12    81    1
    83    13    82    1
    84    13    83    1
    85    14    84    1
    86    14    85    1
    87    15    86    1
    88    15    87    1
    89    16    88    1
    90    16    89    1
    91    17    90    1
    92    17    91    1
    93    21    92    1
    94    21    93    1
    95    24    94    1
    96    24    95    1
    97    28    96    1
    98    30    97    1
    99    30    98    1
   100    31    99    1
   101    31   100    1
   102    33   101    1
   103    33   102    1
   104    33   103    1
   105    34   104    1
   106    34   105    1
   107    34   106    1
   108    35   107    1
   109    35   108    1
   110    35   109    1
   111    39   110    1
   112    39   111    1
   113    40   112    1
   114    40   113    1
   115    42   114    1
   116    43   115    1
   117    45   116    1
   118    46   117    1
   119    47   118    1
   120    48   119    1
   121    49   120    1
   122    50   121    1
   123    52   122    1
   124    53   123    1
   125    54   124    1
   126    55   125    1
   127    56   126    1
   128    57   127    1
   129    58   128    1
