@<TRIPOS>MOLECULE
*****
 134 133 0 0 0
SMALL
GASTEIGER

@<TRIPOS>ATOM
      1 C          11.8372   14.7202   -7.5863 C.3     1  LIG1       -0.0653
      2 C          10.4801   15.3534   -7.3586 C.3     1  LIG1       -0.0559
      3 C           9.2595   14.4188   -7.3394 C.3     1  LIG1       -0.0533
      4 C           9.0655   13.3346   -6.2502 C.3     1  LIG1       -0.0531
      5 C           9.9765   12.1091   -6.0031 C.3     1  LIG1       -0.0531
      6 C          10.2403   11.0569   -7.1060 C.3     1  LIG1       -0.0531
      7 C           9.0281   10.2328   -7.6074 C.3     1  LIG1       -0.0531
      8 C           9.4319    9.1967   -8.6769 C.3     1  LIG1       -0.0531
      9 C           8.2725    8.4024   -9.2841 C.3     1  LIG1       -0.0531
     10 C           8.7231    7.3931  -10.3591 C.3     1  LIG1       -0.0531
     11 C           9.3667    7.9454  -11.6440 C.3     1  LIG1       -0.0531
     12 C          10.7091    8.6963  -11.6891 C.3     1  LIG1       -0.0530
     13 C          11.9634    8.0762  -11.0438 C.3     1  LIG1       -0.0526
     14 C          12.4892    6.8112  -11.7339 C.3     1  LIG1       -0.0430
     15 C          13.8242    6.2719  -11.2211 C.3     1  LIG1        0.0449
     16 C          13.9680    5.9940   -9.7270 C.2     1  LIG1        0.3072
     17 O          13.7310    4.9482   -9.1939 O.2     1  LIG1       -0.2509
     18 O          14.5528    7.0837   -9.1233 O.3     1  LIG1       -0.4608
     19 C          15.7700    6.7817   -8.4147 C.3     1  LIG1        0.1315
     20 C          16.9689    6.7238   -9.3845 C.3     1  LIG1        0.1604
     21 C          17.0009    8.0415  -10.1381 C.3     1  LIG1        0.0951
     22 O          17.7790    8.0484  -11.3181 O.3     1  LIG1       -0.3236
     23 P          17.7437    9.5898  -11.7966 P.3     1  LIG1        0.2128
     24 O          16.3946   10.2292  -11.6302 O.2     1  LIG1       -0.5172
     25 O          18.8605   10.1798  -10.9533 O.co2   1  LIG1       -0.4373
     26 O          17.8739    9.4325  -13.4114 O.3     1  LIG1       -0.3221
     27 C          18.8665    9.1635  -14.3809 C.3     1  LIG1        0.0947
     28 C          19.5885   10.4586  -14.8923 C.3     1  LIG1       -0.0064
     29 N          20.6117   11.0409  -13.8727 N.4     1  LIG1        0.2385
     30 C          19.8895   11.4707  -12.6594 C.3     1  LIG1       -0.0417
     31 C          21.5616    9.9114  -13.4475 C.3     1  LIG1       -0.0417
     32 C          21.2646   12.3038  -14.2684 C.3     1  LIG1       -0.0417
     33 O          18.2183    6.5187   -8.6771 O.3     1  LIG1       -0.4555
     34 C          18.3229    5.2961   -8.0286 C.2     1  LIG1        0.3075
     35 O          17.5229    4.4315   -8.0625 O.2     1  LIG1       -0.2508
     36 C          19.6364    5.2114   -7.2390 C.3     1  LIG1        0.0450
     37 C          19.3905    4.9384   -5.7375 C.3     1  LIG1       -0.0430
     38 C          20.6953    4.7291   -4.9123 C.3     1  LIG1       -0.0526
     39 C          20.4951    4.4806   -3.3896 C.3     1  LIG1       -0.0530
     40 C          21.8022    4.3003   -2.5818 C.3     1  LIG1       -0.0528
     41 C          21.7362    3.9654   -1.0565 C.3     1  LIG1       -0.0496
     42 C          21.0501    4.9279   -0.0520 C.3     1  LIG1       -0.0348
     43 C          19.5856    5.0933   -0.2766 C.2     1  LIG1       -0.0879
     44 C          18.7494    5.9150    0.3756 C.2     1  LIG1       -0.0879
     45 C          17.3637    6.3135   -0.0548 C.3     1  LIG1       -0.0348
     46 C          17.0830    6.4547   -1.5617 C.3     1  LIG1       -0.0496
     47 C          17.1558    5.2144   -2.4545 C.3     1  LIG1       -0.0528
     48 C          16.3384    3.9883   -2.0724 C.3     1  LIG1       -0.0530
     49 C          14.8359    4.1437   -2.2971 C.3     1  LIG1       -0.0531
     50 C          14.1026    5.1619   -1.4337 C.3     1  LIG1       -0.0533
     51 C          14.2244    4.8433    0.0489 C.3     1  LIG1       -0.0559
     52 C          13.6254    5.9414    0.9021 C.3     1  LIG1       -0.0653
     53 H          12.6093   15.4693   -7.3750 H       1  LIG1        0.0230
     54 H          11.9813   14.3974   -8.6230 H       1  LIG1        0.0230
     55 H          12.0075   13.8720   -6.9256 H       1  LIG1        0.0230
     56 H          10.3350   16.1035   -8.1545 H       1  LIG1        0.0263
     57 H          10.5089   15.9377   -6.4315 H       1  LIG1        0.0263
     58 H           9.0825   13.9953   -8.3323 H       1  LIG1        0.0265
     59 H           8.4148   15.1142   -7.1821 H       1  LIG1        0.0265
     60 H           8.0587   12.9306   -6.4145 H       1  LIG1        0.0265
     61 H           9.0021   13.8686   -5.2901 H       1  LIG1        0.0265
     62 H           9.5252   11.5645   -5.1588 H       1  LIG1        0.0265
     63 H          10.9409   12.4540   -5.6090 H       1  LIG1        0.0265
     64 H          10.9691   10.3392   -6.6956 H       1  LIG1        0.0265
     65 H          10.7387   11.5425   -7.9504 H       1  LIG1        0.0265
     66 H           8.3004   10.9173   -8.0519 H       1  LIG1        0.0265
     67 H           8.5429    9.7083   -6.7770 H       1  LIG1        0.0265
     68 H          10.1677    8.4849   -8.2841 H       1  LIG1        0.0265
     69 H           9.9096    9.7630   -9.4692 H       1  LIG1        0.0265
     70 H           7.5226    9.0816   -9.7089 H       1  LIG1        0.0265
     71 H           7.7536    7.8404   -8.4932 H       1  LIG1        0.0265
     72 H           7.8022    6.8797  -10.6852 H       1  LIG1        0.0265
     73 H           9.3450    6.6062   -9.9184 H       1  LIG1        0.0265
     74 H           8.6284    8.6320  -12.0775 H       1  LIG1        0.0265
     75 H           9.4577    7.1053  -12.3421 H       1  LIG1        0.0265
     76 H          10.5631    9.7043  -11.2883 H       1  LIG1        0.0265
     77 H          10.9252    8.8781  -12.7512 H       1  LIG1        0.0265
     78 H          11.7602    7.8617   -9.9931 H       1  LIG1        0.0265
     79 H          12.7535    8.8410  -11.0687 H       1  LIG1        0.0265
     80 H          12.6275    7.0152  -12.8053 H       1  LIG1        0.0270
     81 H          11.7357    6.0229  -11.6561 H       1  LIG1        0.0270
     82 H          14.6508    6.9170  -11.5402 H       1  LIG1        0.0377
     83 H          14.0376    5.3132  -11.7191 H       1  LIG1        0.0377
     84 H          15.6790    5.8426   -7.8758 H       1  LIG1        0.0736
     85 H          15.9325    7.5591   -7.6533 H       1  LIG1        0.0736
     86 H          16.8265    5.9410  -10.1323 H       1  LIG1        0.0792
     87 H          17.2935    8.8706   -9.4757 H       1  LIG1        0.0602
     88 H          16.0129    8.2459  -10.5465 H       1  LIG1        0.0602
     89 H          18.3330    8.7581  -15.2595 H       1  LIG1        0.0618
     90 H          19.5527    8.3605  -14.1013 H       1  LIG1        0.0618
     91 H          18.8598   11.2461  -15.1204 H       1  LIG1        0.0838
     92 H          20.1756   10.2383  -15.7922 H       1  LIG1        0.0838
     93 H          19.4346   10.5524  -12.6016 H       1  LIG1        0.0778
     94 H          19.1140   12.2306  -12.8110 H       1  LIG1        0.0778
     95 H          20.5585   11.6386  -11.8126 H       1  LIG1        0.0778
     96 H          21.0151    9.1508  -12.8668 H       1  LIG1        0.0778
     97 H          22.3445   10.3221  -12.8112 H       1  LIG1        0.0778
     98 H          21.9592    9.4562  -14.3554 H       1  LIG1        0.0778
     99 H          20.5619   13.1302  -14.0834 H       1  LIG1        0.0778
    100 H          21.5118   12.2468  -15.3190 H       1  LIG1        0.0778
    101 H          22.1301   12.4324  -13.6131 H       1  LIG1        0.0778
    102 H          20.2109    6.1352   -7.3714 H       1  LIG1        0.0377
    103 H          20.2239    4.4017   -7.6972 H       1  LIG1        0.0377
    104 H          18.7386    4.0628   -5.6288 H       1  LIG1        0.0270
    105 H          18.8340    5.7922   -5.3326 H       1  LIG1        0.0270
    106 H          21.3100    5.6279   -5.0251 H       1  LIG1        0.0265
    107 H          21.2528    3.8871   -5.3349 H       1  LIG1        0.0265
    108 H          19.8579    3.5984   -3.2459 H       1  LIG1        0.0265
    109 H          19.9982    5.3682   -2.9971 H       1  LIG1        0.0265
    110 H          22.4149    5.1995   -2.7047 H       1  LIG1        0.0265
    111 H          22.3618    3.4790   -3.0498 H       1  LIG1        0.0265
    112 H          22.7821    3.8946   -0.7216 H       1  LIG1        0.0268
    113 H          21.3226    2.9571   -0.9259 H       1  LIG1        0.0268
    114 H          21.5313    5.9102   -0.1099 H       1  LIG1        0.0307
    115 H          21.2006    4.5413    0.9646 H       1  LIG1        0.0307
    116 H          19.2322    4.4964   -1.0933 H       1  LIG1        0.0569
    117 H          19.0704    6.3858    1.3009 H       1  LIG1        0.0569
    118 H          17.1425    7.2985    0.3821 H       1  LIG1        0.0307
    119 H          16.6796    5.6643    0.4654 H       1  LIG1        0.0307
    120 H          17.7752    7.2068   -1.9582 H       1  LIG1        0.0268
    121 H          16.1115    6.9261   -1.7023 H       1  LIG1        0.0268
    122 H          18.1758    4.8822   -2.4959 H       1  LIG1        0.0265
    123 H          16.9630    5.4930   -3.4960 H       1  LIG1        0.0265
    124 H          16.5723    3.6611   -1.0537 H       1  LIG1        0.0265
    125 H          16.6786    3.1588   -2.7122 H       1  LIG1        0.0265
    126 H          14.3673    3.1708   -2.1146 H       1  LIG1        0.0265
    127 H          14.6625    4.3938   -3.3494 H       1  LIG1        0.0265
    128 H          13.0432    5.1457   -1.7062 H       1  LIG1        0.0265
    129 H          14.4111    6.1807   -1.6689 H       1  LIG1        0.0265
    130 H          15.2498    4.6750    0.3450 H       1  LIG1        0.0263
    131 H          13.7535    3.8824    0.2647 H       1  LIG1        0.0263
    132 H          14.1571    6.8922    0.7773 H       1  LIG1        0.0230
    133 H          13.6779    5.6618    1.9577 H       1  LIG1        0.0230
    134 H          12.5780    6.0934    0.6303 H       1  LIG1        0.0230
@<TRIPOS>BOND
     1     1     2    1
     2     2     3    1
     3     3     4    1
     4     4     5    1
     5     5     6    1
     6     6     7    1
     7     7     8    1
     8     8     9    1
     9     9    10    1
    10    10    11    1
    11    11    12    1
    12    12    13    1
    13    13    14    1
    14    14    15    1
    15    15    16    1
    16    16    17    2
    17    16    18    1
    18    18    19    1
    19    19    20    1
    20    20    21    1
    21    21    22    1
    22    22    23    1
    23    23    24    2
    24    23    25    1
    25    23    26    1
    26    26    27    1
    27    27    28    1
    28    28    29    1
    29    29    30    1
    30    29    31    1
    31    29    32    1
    32    20    33    1
    33    33    34    1
    34    34    35    2
    35    34    36    1
    36    36    37    1
    37    37    38    1
    38    38    39    1
    39    39    40    1
    40    40    41    1
    41    41    42    1
    42    42    43    1
    43    43    44    2
    44    44    45    1
    45    45    46    1
    46    46    47    1
    47    47    48    1
    48    48    49    1
    49    49    50    1
    50    50    51    1
    51    51    52    1
    52     1    53    1
    53     1    54    1
    54     1    55    1
    55     2    56    1
    56     2    57    1
    57     3    58    1
    58     3    59    1
    59     4    60    1
    60     4    61    1
    61     5    62    1
    62     5    63    1
    63     6    64    1
    64     6    65    1
    65     7    66    1
    66     7    67    1
    67     8    68    1
    68     8    69    1
    69     9    70    1
    70     9    71    1
    71    10    72    1
    72    10    73    1
    73    11    74    1
    74    11    75    1
    75    12    76    1
    76    12    77    1
    77    13    78    1
    78    13    79    1
    79    14    80    1
    80    14    81    1
    81    15    82    1
    82    15    83    1
    83    19    84    1
    84    19    85    1
    85    20    86    1
    86    21    87    1
    87    21    88    1
    88    27    89    1
    89    27    90    1
    90    28    91    1
    91    28    92    1
    92    30    93    1
    93    30    94    1
    94    30    95    1
    95    31    96    1
    96    31    97    1
    97    31    98    1
    98    32    99    1
    99    32   100    1
   100    32   101    1
   101    36   102    1
   102    36   103    1
   103    37   104    1
   104    37   105    1
   105    38   106    1
   106    38   107    1
   107    39   108    1
   108    39   109    1
   109    40   110    1
   110    40   111    1
   111    41   112    1
   112    41   113    1
   113    42   114    1
   114    42   115    1
   115    43   116    1
   116    44   117    1
   117    45   118    1
   118    45   119    1
   119    46   120    1
   120    46   121    1
   121    47   122    1
   122    47   123    1
   123    48   124    1
   124    48   125    1
   125    49   126    1
   126    49   127    1
   127    50   128    1
   128    50   129    1
   129    51   130    1
   130    51   131    1
   131    52   132    1
   132    52   133    1
   133    52   134    1
