@<TRIPOS>MOLECULE
*****
 125 124 0 0 0
SMALL
GASTEIGER

@<TRIPOS>ATOM
      1 C           1.6535   14.5367    5.5503 C.3     1  LIG1       -0.0653
      2 C           2.5834   13.8664    4.5509 C.3     1  LIG1       -0.0559
      3 C           3.9257   14.5853    4.4633 C.3     1  LIG1       -0.0533
      4 C           4.8648   13.9003    3.4656 C.3     1  LIG1       -0.0531
      5 C           6.2283   14.5897    3.3643 C.3     1  LIG1       -0.0530
      6 C           6.9669   14.5931    4.6997 C.3     1  LIG1       -0.0528
      7 C           8.3280   15.2780    4.6025 C.3     1  LIG1       -0.0496
      8 C           9.0442   15.3165    5.9547 C.3     1  LIG1       -0.0348
      9 C           9.2711   13.9389    6.5026 C.2     1  LIG1       -0.0879
     10 C          10.3542   13.2041    6.2177 C.2     1  LIG1       -0.0879
     11 C          10.5503   11.8059    6.7242 C.3     1  LIG1       -0.0348
     12 C          12.0335   11.5250    6.9245 C.3     1  LIG1       -0.0496
     13 C          12.2878   10.0999    7.4137 C.3     1  LIG1       -0.0528
     14 C          13.7805    9.8257    7.6102 C.3     1  LIG1       -0.0530
     15 C          14.5782    9.9714    6.3112 C.3     1  LIG1       -0.0526
     16 C          16.0586    9.6966    6.5329 C.3     1  LIG1       -0.0430
     17 C          16.8500    9.8498    5.2379 C.3     1  LIG1        0.0450
     18 C          18.3048    9.6009    5.5255 C.2     1  LIG1        0.3075
     19 O          18.8472    8.4998    5.4912 O.2     1  LIG1       -0.2508
     20 O          18.8714   10.7618    5.9354 O.3     1  LIG1       -0.4555
     21 C          20.1987   10.7160    6.4777 C.3     1  LIG1        0.1604
     22 C          21.2370   11.3308    5.5381 C.3     1  LIG1        0.1315
     23 O          21.4564   10.5751    4.3465 O.3     1  LIG1       -0.4608
     24 C          20.5811   10.8152    3.3470 C.2     1  LIG1        0.3072
     25 O          19.4205   11.2383    3.4661 O.2     1  LIG1       -0.2509
     26 C          21.2192   10.6439    2.0253 C.3     1  LIG1        0.0449
     27 C          21.0771    9.2234    1.5355 C.3     1  LIG1       -0.0430
     28 C          21.7243    9.0965    0.1688 C.3     1  LIG1       -0.0526
     29 C          21.6131    7.6624   -0.3298 C.3     1  LIG1       -0.0530
     30 C          22.2429    7.4795   -1.7045 C.3     1  LIG1       -0.0531
     31 C          23.7325    7.8134   -1.7047 C.3     1  LIG1       -0.0531
     32 C          24.3390    7.6187   -3.0858 C.3     1  LIG1       -0.0531
     33 C          25.8176    7.9793   -3.0627 C.3     1  LIG1       -0.0531
     34 C          26.4552    7.7705   -4.4314 C.3     1  LIG1       -0.0531
     35 C          27.9467    8.0970   -4.4112 C.3     1  LIG1       -0.0531
     36 C          28.7560    7.2590   -3.4191 C.3     1  LIG1       -0.0531
     37 C          28.6456    5.7553   -3.6940 C.3     1  LIG1       -0.0531
     38 C          29.4611    4.9000   -2.7242 C.3     1  LIG1       -0.0533
     39 C          30.9654    5.1776   -2.7473 C.3     1  LIG1       -0.0559
     40 C          31.6345    4.8843   -4.0836 C.3     1  LIG1       -0.0653
     41 C          20.1101   11.5381    7.7507 C.3     1  LIG1        0.0951
     42 O          21.3751   11.5534    8.3845 O.3     1  LIG1       -0.3236
     43 P          21.3115   11.6045    9.9830 P.3     1  LIG1        0.2128
     44 O          21.2619   12.9972   10.5155 O.2     1  LIG1       -0.5172
     45 O          20.2393   10.6217   10.4019 O.co2   1  LIG1       -0.4373
     46 O          22.7545   10.9786   10.3750 O.3     1  LIG1       -0.3221
     47 C          22.9426    9.5894   10.5784 C.3     1  LIG1        0.0945
     48 C          22.3529    9.1320   11.9237 C.3     1  LIG1       -0.0110
     49 N          20.9095    9.3402   11.9755 N.4     1  LIG1        0.2202
     50 H          20.6917   10.3611   11.9310 H       1  LIG1        0.1995
     51 H          20.4724    9.2271   11.0282 H       1  LIG1        0.1995
     52 H          20.3012    8.9487   12.6850 H       1  LIG1        0.1995
     53 H           0.7092   13.9871    5.6110 H       1  LIG1        0.0230
     54 H           1.4297   15.5660    5.2527 H       1  LIG1        0.0230
     55 H           2.0977   14.5578    6.5510 H       1  LIG1        0.0230
     56 H           2.1063   13.8449    3.5655 H       1  LIG1        0.0263
     57 H           2.7471   12.8274    4.8600 H       1  LIG1        0.0263
     58 H           4.3712   14.5855    5.4633 H       1  LIG1        0.0265
     59 H           3.7805   15.6327    4.1724 H       1  LIG1        0.0265
     60 H           4.4033   13.8920    2.4707 H       1  LIG1        0.0265
     61 H           5.0079   12.8525    3.7576 H       1  LIG1        0.0265
     62 H           6.0990   15.6168    3.0046 H       1  LIG1        0.0265
     63 H           6.8352   14.0629    2.6169 H       1  LIG1        0.0265
     64 H           7.0809   13.5552    5.0343 H       1  LIG1        0.0265
     65 H           6.3825   15.1171    5.4623 H       1  LIG1        0.0265
     66 H           8.1974   16.3066    4.2452 H       1  LIG1        0.0268
     67 H           8.9507   14.7587    3.8639 H       1  LIG1        0.0268
     68 H           8.4528   15.8896    6.6793 H       1  LIG1        0.0307
     69 H           9.9976   15.8467    5.8459 H       1  LIG1        0.0307
     70 H           8.4762   13.5161    7.1135 H       1  LIG1        0.0569
     71 H          11.1238   13.6212    5.5697 H       1  LIG1        0.0569
     72 H          10.1411   11.1002    5.9914 H       1  LIG1        0.0307
     73 H          10.0150   11.6605    7.6690 H       1  LIG1        0.0307
     74 H          12.4614   12.2392    7.6390 H       1  LIG1        0.0268
     75 H          12.5392   11.6867    5.9662 H       1  LIG1        0.0268
     76 H          11.8719    9.3766    6.7016 H       1  LIG1        0.0265
     77 H          11.7678    9.9428    8.3668 H       1  LIG1        0.0265
     78 H          13.9054    8.8095    8.0038 H       1  LIG1        0.0265
     79 H          14.1774   10.5109    8.3695 H       1  LIG1        0.0265
     80 H          14.4811   10.9869    5.9142 H       1  LIG1        0.0265
     81 H          14.1763    9.2865    5.5553 H       1  LIG1        0.0265
     82 H          16.1942    8.6858    6.9340 H       1  LIG1        0.0270
     83 H          16.4480   10.3899    7.2903 H       1  LIG1        0.0270
     84 H          16.7352   10.8570    4.8172 H       1  LIG1        0.0377
     85 H          16.5115    9.1471    4.4698 H       1  LIG1        0.0377
     86 H          20.4971    9.6886    6.7201 H       1  LIG1        0.0792
     87 H          22.2131   11.3895    6.0343 H       1  LIG1        0.0736
     88 H          20.9702   12.3558    5.2521 H       1  LIG1        0.0736
     89 H          22.2712   10.9453    2.1020 H       1  LIG1        0.0377
     90 H          20.7430   11.3513    1.3345 H       1  LIG1        0.0377
     91 H          20.0196    8.9384    1.4839 H       1  LIG1        0.0270
     92 H          21.5613    8.5385    2.2422 H       1  LIG1        0.0270
     93 H          22.7731    9.4011    0.2586 H       1  LIG1        0.0265
     94 H          21.2521    9.7823   -0.5465 H       1  LIG1        0.0265
     95 H          20.5548    7.3810   -0.3844 H       1  LIG1        0.0265
     96 H          22.0882    6.9838    0.3888 H       1  LIG1        0.0265
     97 H          21.7165    8.1095   -2.4312 H       1  LIG1        0.0265
     98 H          22.0991    6.4389   -2.0185 H       1  LIG1        0.0265
     99 H          24.2514    7.1848   -0.9700 H       1  LIG1        0.0265
    100 H          23.8963    8.8552   -1.4099 H       1  LIG1        0.0265
    101 H          23.8151    8.2503   -3.8118 H       1  LIG1        0.0265
    102 H          24.2153    6.5759   -3.3989 H       1  LIG1        0.0265
    103 H          26.3104    7.3536   -2.3107 H       1  LIG1        0.0265
    104 H          25.9554    9.0227   -2.7524 H       1  LIG1        0.0265
    105 H          25.9555    8.4027   -5.1751 H       1  LIG1        0.0265
    106 H          26.3007    6.7369   -4.7599 H       1  LIG1        0.0265
    107 H          28.0864    9.1588   -4.1714 H       1  LIG1        0.0265
    108 H          28.3594    7.9460   -5.4152 H       1  LIG1        0.0265
    109 H          28.4537    7.4770   -2.3875 H       1  LIG1        0.0265
    110 H          29.7956    7.5874   -3.5062 H       1  LIG1        0.0265
    111 H          28.9525    5.5512   -4.7247 H       1  LIG1        0.0265
    112 H          27.6018    5.4292   -3.6179 H       1  LIG1        0.0265
    113 H          29.2789    3.8429   -2.9531 H       1  LIG1        0.0265
    114 H          29.0838    5.0640   -1.7059 H       1  LIG1        0.0265
    115 H          31.4461    4.5701   -1.9724 H       1  LIG1        0.0263
    116 H          31.1526    6.2214   -2.4763 H       1  LIG1        0.0263
    117 H          31.6628    3.8087   -4.2845 H       1  LIG1        0.0230
    118 H          32.6671    5.2479   -4.0699 H       1  LIG1        0.0230
    119 H          31.1285    5.3772   -4.9181 H       1  LIG1        0.0230
    120 H          19.3206   11.0911    8.3711 H       1  LIG1        0.0602
    121 H          19.7850   12.5681    7.5672 H       1  LIG1        0.0602
    122 H          24.0260    9.4107   10.6088 H       1  LIG1        0.0618
    123 H          22.5522    9.0192    9.7287 H       1  LIG1        0.0618
    124 H          22.7734    9.7088   12.7517 H       1  LIG1        0.0836
    125 H          22.5068    8.0637   12.0860 H       1  LIG1        0.0836
@<TRIPOS>BOND
     1     1     2    1
     2     2     3    1
     3     3     4    1
     4     4     5    1
     5     5     6    1
     6     6     7    1
     7     7     8    1
     8     8     9    1
     9     9    10    2
    10    10    11    1
    11    11    12    1
    12    12    13    1
    13    13    14    1
    14    14    15    1
    15    15    16    1
    16    16    17    1
    17    17    18    1
    18    18    19    2
    19    18    20    1
    20    20    21    1
    21    21    22    1
    22    22    23    1
    23    23    24    1
    24    24    25    2
    25    24    26    1
    26    26    27    1
    27    27    28    1
    28    28    29    1
    29    29    30    1
    30    30    31    1
    31    31    32    1
    32    32    33    1
    33    33    34    1
    34    34    35    1
    35    35    36    1
    36    36    37    1
    37    37    38    1
    38    38    39    1
    39    39    40    1
    40    21    41    1
    41    41    42    1
    42    42    43    1
    43    43    44    2
    44    43    45    1
    45    43    46    1
    46    46    47    1
    47    47    48    1
    48    48    49    1
    49    49    50    1
    50    49    51    1
    51    49    52    1
    52     1    53    1
    53     1    54    1
    54     1    55    1
    55     2    56    1
    56     2    57    1
    57     3    58    1
    58     3    59    1
    59     4    60    1
    60     4    61    1
    61     5    62    1
    62     5    63    1
    63     6    64    1
    64     6    65    1
    65     7    66    1
    66     7    67    1
    67     8    68    1
    68     8    69    1
    69     9    70    1
    70    10    71    1
    71    11    72    1
    72    11    73    1
    73    12    74    1
    74    12    75    1
    75    13    76    1
    76    13    77    1
    77    14    78    1
    78    14    79    1
    79    15    80    1
    80    15    81    1
    81    16    82    1
    82    16    83    1
    83    17    84    1
    84    17    85    1
    85    21    86    1
    86    22    87    1
    87    22    88    1
    88    26    89    1
    89    26    90    1
    90    27    91    1
    91    27    92    1
    92    28    93    1
    93    28    94    1
    94    29    95    1
    95    29    96    1
    96    30    97    1
    97    30    98    1
    98    31    99    1
    99    31   100    1
   100    32   101    1
   101    32   102    1
   102    33   103    1
   103    33   104    1
   104    34   105    1
   105    34   106    1
   106    35   107    1
   107    35   108    1
   108    36   109    1
   109    36   110    1
   110    37   111    1
   111    37   112    1
   112    38   113    1
   113    38   114    1
   114    39   115    1
   115    39   116    1
   116    40   117    1
   117    40   118    1
   118    40   119    1
   119    41   120    1
   120    41   121    1
   121    47   122    1
   122    47   123    1
   123    48   124    1
   124    48   125    1
