@<TRIPOS>MOLECULE
*****
 127 126 0 0 0
SMALL
GASTEIGER

@<TRIPOS>ATOM
      1 C          27.5198   -9.3469   19.5557 C.3     1  LIG1       -0.0653
      2 C          26.4306   -8.2890   19.3110 C.3     1  LIG1       -0.0559
      3 C          26.9561   -6.8888   19.6521 C.3     1  LIG1       -0.0533
      4 C          26.0269   -5.6583   19.5017 C.3     1  LIG1       -0.0531
      5 C          25.4556   -5.2719   18.1169 C.3     1  LIG1       -0.0530
      6 C          24.5820   -3.9925   18.1736 C.3     1  LIG1       -0.0528
      7 C          23.8970   -3.5713   16.8366 C.3     1  LIG1       -0.0496
      8 C          22.9489   -4.6036   16.1358 C.3     1  LIG1       -0.0348
      9 C          22.6395   -4.4998   14.5747 C.2     1  LIG1       -0.0879
     10 C          22.0683   -3.4021   14.0624 C.2     1  LIG1       -0.0879
     11 C          21.7648   -2.6557   12.6885 C.3     1  LIG1       -0.0348
     12 C          20.4647   -1.9100   12.0835 C.3     1  LIG1       -0.0496
     13 C          20.5957   -1.0423   10.7952 C.3     1  LIG1       -0.0528
     14 C          21.5002    0.2046   10.9192 C.3     1  LIG1       -0.0530
     15 C          21.2073    1.3099   11.9515 C.3     1  LIG1       -0.0526
     16 C          19.9012    2.0822   11.8751 C.3     1  LIG1       -0.0430
     17 C          18.6264    1.2688   12.0693 C.3     1  LIG1        0.0450
     18 C          18.3508    0.6561   13.4110 C.2     1  LIG1        0.3075
     19 O          17.1178    0.6296   13.8760 O.2     1  LIG1       -0.2508
     20 O          19.3043    0.0172   14.0302 O.3     1  LIG1       -0.4555
     21 C          19.1706   -0.9070   15.1348 C.3     1  LIG1        0.1604
     22 C          18.1610   -2.1859   15.0422 C.3     1  LIG1        0.1315
     23 O          18.2475   -3.1880   13.9122 O.3     1  LIG1       -0.4608
     24 C          18.6322   -4.5062   14.1050 C.2     1  LIG1        0.3072
     25 O          19.0193   -4.9771   15.1851 O.2     1  LIG1       -0.2509
     26 C          18.6417   -5.3629   12.8019 C.3     1  LIG1        0.0449
     27 C          17.2775   -5.8211   12.1441 C.3     1  LIG1       -0.0430
     28 C          16.4098   -7.0444   12.7283 C.3     1  LIG1       -0.0526
     29 C          15.0436   -7.4466   11.9811 C.3     1  LIG1       -0.0530
     30 C          14.1166   -8.6921   12.5401 C.3     1  LIG1       -0.0531
     31 C          14.7700  -10.1516   12.5374 C.3     1  LIG1       -0.0531
     32 C          14.1550  -11.4764   13.2726 C.3     1  LIG1       -0.0531
     33 C          15.0657  -12.8367   13.1191 C.3     1  LIG1       -0.0531
     34 C          14.6181  -14.2509   13.7898 C.3     1  LIG1       -0.0531
     35 C          15.5613  -15.5319   13.5804 C.3     1  LIG1       -0.0531
     36 C          15.1505  -16.9550   14.1796 C.3     1  LIG1       -0.0531
     37 C          15.0093  -17.0786   15.7143 C.3     1  LIG1       -0.0531
     38 C          14.5995  -18.4886   16.2551 C.3     1  LIG1       -0.0533
     39 C          15.6659  -19.5823   16.0841 C.3     1  LIG1       -0.0559
     40 C          15.2629  -20.9422   16.6651 C.3     1  LIG1       -0.0653
     41 C          20.5066   -1.5377   15.3059 C.3     1  LIG1        0.0951
     42 O          21.6992   -0.8322   14.9622 O.3     1  LIG1       -0.3236
     43 P          22.6690   -0.2220   16.1003 P.3     1  LIG1        0.2128
     44 O          21.8137    0.0071   17.3130 O.2     1  LIG1       -0.5172
     45 O          24.0417   -0.8416   16.1748 O.co2   1  LIG1       -0.4373
     46 O          22.9526    1.1571   15.3226 O.3     1  LIG1       -0.3248
     47 C          23.7598    1.0531   14.1448 C.3     1  LIG1        0.0829
     48 C          23.7536    2.4735   13.6421 C.3     1  LIG1        0.1018
     49 O          24.3792    3.3115   14.6302 O.3     1  LIG1       -0.3872
     50 C          24.4697    2.6251   12.3082 C.3     1  LIG1        0.0723
     51 O          24.0116    3.8235   11.6713 O.3     1  LIG1       -0.3924
     52 H          27.1627  -10.3491   19.2944 H       1  LIG1        0.0230
     53 H          27.8283   -9.3724   20.6080 H       1  LIG1        0.0230
     54 H          28.4142   -9.1450   18.9555 H       1  LIG1        0.0230
     55 H          25.5688   -8.5301   19.9441 H       1  LIG1        0.0263
     56 H          26.1052   -8.3485   18.2680 H       1  LIG1        0.0263
     57 H          27.8963   -6.7124   19.1169 H       1  LIG1        0.0265
     58 H          27.2217   -6.9269   20.7188 H       1  LIG1        0.0265
     59 H          26.6176   -4.8029   19.8580 H       1  LIG1        0.0265
     60 H          25.1985   -5.7733   20.2092 H       1  LIG1        0.0265
     61 H          24.8559   -6.0979   17.7324 H       1  LIG1        0.0265
     62 H          26.2755   -5.0850   17.4147 H       1  LIG1        0.0265
     63 H          25.2199   -3.1538   18.5030 H       1  LIG1        0.0265
     64 H          23.8131   -4.0845   18.9522 H       1  LIG1        0.0265
     65 H          24.6627   -3.2113   16.1406 H       1  LIG1        0.0268
     66 H          23.2826   -2.7071   17.1274 H       1  LIG1        0.0268
     67 H          22.0119   -4.5798   16.7210 H       1  LIG1        0.0307
     68 H          23.3752   -5.5929   16.2702 H       1  LIG1        0.0307
     69 H          22.9768   -5.2637   13.8972 H       1  LIG1        0.0569
     70 H          22.0078   -2.8485   14.9763 H       1  LIG1        0.0569
     71 H          22.0613   -3.3376   11.9069 H       1  LIG1        0.0307
     72 H          22.4553   -1.8084   12.7674 H       1  LIG1        0.0307
     73 H          20.1731   -1.1539   12.7660 H       1  LIG1        0.0268
     74 H          19.5873   -2.5544   11.9798 H       1  LIG1        0.0268
     75 H          19.6018   -0.7270   10.4564 H       1  LIG1        0.0265
     76 H          20.9196   -1.6587    9.9553 H       1  LIG1        0.0265
     77 H          21.5631    0.7008    9.9415 H       1  LIG1        0.0265
     78 H          22.5098   -0.1643   11.1281 H       1  LIG1        0.0265
     79 H          21.9785    2.0708   11.7825 H       1  LIG1        0.0265
     80 H          21.3511    0.9543   12.9709 H       1  LIG1        0.0265
     81 H          19.8799    2.5619   10.8850 H       1  LIG1        0.0270
     82 H          19.9227    2.9047   12.6037 H       1  LIG1        0.0270
     83 H          18.5903    0.4807   11.3274 H       1  LIG1        0.0377
     84 H          17.7955    1.9098   11.7875 H       1  LIG1        0.0377
     85 H          19.0205   -0.3209   16.0396 H       1  LIG1        0.0792
     86 H          17.1477   -1.7934   15.0054 H       1  LIG1        0.0736
     87 H          18.2806   -2.7615   15.9706 H       1  LIG1        0.0736
     88 H          19.3439   -6.2084   12.9191 H       1  LIG1        0.0377
     89 H          19.1778   -4.7273   12.0760 H       1  LIG1        0.0377
     90 H          17.5145   -6.0542   11.0934 H       1  LIG1        0.0270
     91 H          16.6548   -4.9238   12.1320 H       1  LIG1        0.0270
     92 H          16.1490   -6.7797   13.7562 H       1  LIG1        0.0265
     93 H          17.0355   -7.9413   12.7517 H       1  LIG1        0.0265
     94 H          15.2513   -7.6397   10.9191 H       1  LIG1        0.0265
     95 H          14.4009   -6.5485   11.9815 H       1  LIG1        0.0265
     96 H          13.2181   -8.7226   11.8930 H       1  LIG1        0.0265
     97 H          13.7332   -8.4211   13.5317 H       1  LIG1        0.0265
     98 H          15.7529  -10.0080   12.9826 H       1  LIG1        0.0265
     99 H          14.8892  -10.4129   11.4801 H       1  LIG1        0.0265
    100 H          13.1334  -11.6753   12.9191 H       1  LIG1        0.0265
    101 H          14.0900  -11.2567   14.3446 H       1  LIG1        0.0265
    102 H          16.0272  -12.5873   13.5808 H       1  LIG1        0.0265
    103 H          15.2505  -13.0002   12.0498 H       1  LIG1        0.0265
    104 H          13.6120  -14.5138   13.4450 H       1  LIG1        0.0265
    105 H          14.5770  -14.0879   14.8699 H       1  LIG1        0.0265
    106 H          16.5566  -15.3050   13.9823 H       1  LIG1        0.0265
    107 H          15.7088  -15.6954   12.5017 H       1  LIG1        0.0265
    108 H          15.9393  -17.6687   13.8885 H       1  LIG1        0.0265
    109 H          14.2393  -17.3285   13.6954 H       1  LIG1        0.0265
    110 H          14.2570  -16.3595   16.0546 H       1  LIG1        0.0265
    111 H          15.9607  -16.7958   16.1796 H       1  LIG1        0.0265
    112 H          13.6625  -18.8184   15.7910 H       1  LIG1        0.0265
    113 H          14.3875  -18.3987   17.3320 H       1  LIG1        0.0265
    114 H          16.5913  -19.2599   16.5748 H       1  LIG1        0.0263
    115 H          15.8926  -19.7196   15.0227 H       1  LIG1        0.0263
    116 H          16.0990  -21.3737   17.2289 H       1  LIG1        0.0230
    117 H          15.0260  -21.6499   15.8620 H       1  LIG1        0.0230
    118 H          14.3990  -20.8927   17.3353 H       1  LIG1        0.0230
    119 H          20.3557   -2.2616   14.5160 H       1  LIG1        0.0602
    120 H          20.6032   -2.1308   16.2198 H       1  LIG1        0.0602
    121 H          23.3434    0.3537   13.4115 H       1  LIG1        0.0591
    122 H          24.7818    0.7313   14.3758 H       1  LIG1        0.0591
    123 H          22.7222    2.8410   13.5884 H       1  LIG1        0.0639
    124 H          24.2635    2.8037   15.4673 H       1  LIG1        0.2100
    125 H          24.2662    1.7931   11.6257 H       1  LIG1        0.0583
    126 H          25.5503    2.7078   12.4477 H       1  LIG1        0.0583
    127 H          23.7265    4.4079   12.4004 H       1  LIG1        0.2095
@<TRIPOS>BOND
     1     1     2    1
     2     2     3    1
     3     3     4    1
     4     4     5    1
     5     5     6    1
     6     6     7    1
     7     7     8    1
     8     8     9    1
     9     9    10    2
    10    10    11    1
    11    11    12    1
    12    12    13    1
    13    13    14    1
    14    14    15    1
    15    15    16    1
    16    16    17    1
    17    17    18    1
    18    18    19    2
    19    18    20    1
    20    20    21    1
    21    21    22    1
    22    22    23    1
    23    23    24    1
    24    24    25    2
    25    24    26    1
    26    26    27    1
    27    27    28    1
    28    28    29    1
    29    29    30    1
    30    30    31    1
    31    31    32    1
    32    32    33    1
    33    33    34    1
    34    34    35    1
    35    35    36    1
    36    36    37    1
    37    37    38    1
    38    38    39    1
    39    39    40    1
    40    21    41    1
    41    41    42    1
    42    42    43    1
    43    43    44    2
    44    43    45    1
    45    43    46    1
    46    46    47    1
    47    47    48    1
    48    48    49    1
    49    48    50    1
    50    50    51    1
    51     1    52    1
    52     1    53    1
    53     1    54    1
    54     2    55    1
    55     2    56    1
    56     3    57    1
    57     3    58    1
    58     4    59    1
    59     4    60    1
    60     5    61    1
    61     5    62    1
    62     6    63    1
    63     6    64    1
    64     7    65    1
    65     7    66    1
    66     8    67    1
    67     8    68    1
    68     9    69    1
    69    10    70    1
    70    11    71    1
    71    11    72    1
    72    12    73    1
    73    12    74    1
    74    13    75    1
    75    13    76    1
    76    14    77    1
    77    14    78    1
    78    15    79    1
    79    15    80    1
    80    16    81    1
    81    16    82    1
    82    17    83    1
    83    17    84    1
    84    21    85    1
    85    22    86    1
    86    22    87    1
    87    26    88    1
    88    26    89    1
    89    27    90    1
    90    27    91    1
    91    28    92    1
    92    28    93    1
    93    29    94    1
    94    29    95    1
    95    30    96    1
    96    30    97    1
    97    31    98    1
    98    31    99    1
    99    32   100    1
   100    32   101    1
   101    33   102    1
   102    33   103    1
   103    34   104    1
   104    34   105    1
   105    35   106    1
   106    35   107    1
   107    36   108    1
   108    36   109    1
   109    37   110    1
   110    37   111    1
   111    38   112    1
   112    38   113    1
   113    39   114    1
   114    39   115    1
   115    40   116    1
   116    40   117    1
   117    40   118    1
   118    41   119    1
   119    41   120    1
   120    47   121    1
   121    47   122    1
   122    48   123    1
   123    49   124    1
   124    50   125    1
   125    50   126    1
   126    51   127    1
