@<TRIPOS>MOLECULE
*****
 66 67 0 0 0
SMALL
GASTEIGER

@<TRIPOS>ATOM
      1 C           5.7501   -3.9028   -7.4801 C.3     1  LIG1       -0.0645
      2 C           6.4503   -4.3547   -6.2038 C.3     1  LIG1       -0.0432
      3 C           5.8772   -3.7160   -4.9343 C.3     1  LIG1        0.0534
      4 H           5.9760   -2.6248   -4.9750 H       1  LIG1        0.0410
      5 C           6.6233   -4.2036   -3.6876 C.3     1  LIG1       -0.0523
      6 C           4.4135   -4.0550   -4.7802 C.2     1  LIG1        0.3102
      7 O           3.9992   -5.0404   -4.1818 O.2     1  LIG1       -0.2505
      8 O           3.6296   -3.1160   -5.4031 O.3     1  LIG1       -0.4604
      9 C           2.2321   -3.3245   -5.1916 C.3     1  LIG1        0.1127
     10 H           2.0547   -4.4126   -5.1660 H       1  LIG1        0.0741
     11 C           1.8240   -2.7651   -3.8249 C.3     1  LIG1        0.0146
     12 C           0.4125   -3.2130   -3.4557 C.3     1  LIG1        0.0773
     13 H           0.0336   -2.5578   -2.6645 H       1  LIG1        0.0639
     14 C          -0.5212   -3.1905   -4.6199 C.2     1  LIG1       -0.0522
     15 C          -0.1352   -2.9880   -5.8933 C.2     1  LIG1       -0.0423
     16 C           1.3319   -2.8326   -6.3537 C.3     1  LIG1        0.0245
     17 H           1.5166   -3.5789   -7.1413 H       1  LIG1        0.0388
     18 C           1.4518   -1.4270   -7.0690 C.3     1  LIG1       -0.0247
     19 H           1.0519   -0.6898   -6.3553 H       1  LIG1        0.0313
     20 C           0.4526   -1.4656   -8.3042 C.3     1  LIG1       -0.0219
     21 H           0.2001   -0.4295   -8.5595 H       1  LIG1        0.0343
     22 C          -0.8730   -2.1458   -8.0244 C.2     1  LIG1       -0.0806
     23 C          -1.1379   -2.8429   -6.9160 C.2     1  LIG1       -0.0621
     24 C           1.0460   -2.1448   -9.5472 C.3     1  LIG1       -0.0587
     25 C           2.8666   -0.8622   -7.4936 C.3     1  LIG1       -0.0467
     26 C           2.7863    0.5473   -8.1826 C.3     1  LIG1       -0.0265
     27 C           4.0918    1.2513   -8.6610 C.3     1  LIG1        0.0576
     28 H           3.7958    2.2345   -9.0558 H       1  LIG1        0.0594
     29 C           4.8856    0.5208   -9.7736 C.3     1  LIG1       -0.0002
     30 C           6.1054    1.3148  -10.3348 C.3     1  LIG1        0.0676
     31 H           5.7763    2.2809  -10.7366 H       1  LIG1        0.0599
     32 C           6.8439    0.5243  -11.4290 C.3     1  LIG1        0.0708
     33 C           7.9942    1.3155  -12.0161 C.2     1  LIG1        0.3072
     34 O           8.6740    2.1281  -11.4282 O.2     1  LIG1       -0.2509
     35 O           8.2599    0.9829  -13.3001 O.3     1  LIG1       -0.4806
     36 O           6.9887    1.5894   -9.2400 O.3     1  LIG1       -0.3912
     37 O           4.9115    1.4984   -7.5244 O.3     1  LIG1       -0.3917
     38 O           0.4213   -4.5315   -2.9210 O.3     1  LIG1       -0.3876
     39 H           6.2521   -4.3254   -8.3555 H       1  LIG1        0.0230
     40 H           5.7625   -2.8122   -7.5708 H       1  LIG1        0.0230
     41 H           4.7094   -4.2415   -7.5092 H       1  LIG1        0.0230
     42 H           7.5129   -4.0955   -6.2816 H       1  LIG1        0.0270
     43 H           6.3915   -5.4483   -6.1394 H       1  LIG1        0.0270
     44 H           6.1964   -3.7580   -2.7812 H       1  LIG1        0.0238
     45 H           7.6831   -3.9369   -3.7317 H       1  LIG1        0.0238
     46 H           6.5525   -5.2925   -3.5751 H       1  LIG1        0.0238
     47 H           1.8868   -1.6709   -3.8570 H       1  LIG1        0.0329
     48 H           2.5285   -3.0934   -3.0510 H       1  LIG1        0.0329
     49 H          -1.5751   -3.2906   -4.3673 H       1  LIG1        0.0600
     50 H          -1.6579   -2.0401   -8.7699 H       1  LIG1        0.0575
     51 H          -2.1287   -3.2601   -6.7511 H       1  LIG1        0.0617
     52 H           1.8537   -1.5521   -9.9833 H       1  LIG1        0.0235
     53 H           0.2882   -2.2697  -10.3297 H       1  LIG1        0.0235
     54 H           1.4453   -3.1386   -9.3194 H       1  LIG1        0.0235
     55 H           3.3674   -1.5674   -8.1640 H       1  LIG1        0.0269
     56 H           3.4924   -0.7662   -6.5997 H       1  LIG1        0.0269
     57 H           2.3099    1.2200   -7.4548 H       1  LIG1        0.0290
     58 H           2.1172    0.5083   -9.0473 H       1  LIG1        0.0290
     59 H           4.2104    0.2768  -10.6017 H       1  LIG1        0.0315
     60 H           5.2677   -0.4135   -9.3487 H       1  LIG1        0.0315
     61 H           6.1515    0.2772  -12.2430 H       1  LIG1        0.0403
     62 H           7.2700   -0.4029  -11.0309 H       1  LIG1        0.0403
     63 H           9.0477    1.5149  -13.5399 H       1  LIG1        0.2951
     64 H           7.7806    2.0412   -9.6069 H       1  LIG1        0.2098
     65 H           5.7955    1.7565   -7.8659 H       1  LIG1        0.2098
     66 H           0.3380   -5.1638   -3.6554 H       1  LIG1        0.2102
@<TRIPOS>BOND
     1     1     2    1
     2     3     5    1
     3     3     6    1
     4     6     7    2
     5     6     8    1
     6     9    11    1
     7    11    12    1
     8    12    14    1
     9    14    15    2
    10    15    16    1
    11    16    17    1
    12     9    16    1
    13    16    18    1
    14    18    19    1
    15    18    20    1
    16    20    21    1
    17    20    22    1
    18    22    23    2
    19    15    23    1
    20    20    24    1
    21    18    25    1
    22    25    26    1
    23    27    29    1
    24    30    32    1
    25    32    33    1
    26    33    34    2
    27    33    35    1
    28    30    36    1
    29    27    37    1
    30     9    10    1
    31     9     8    1
    32     3     4    1
    33     3     2    1
    34    12    38    1
    35    12    13    1
    36    27    28    1
    37    27    26    1
    38    30    31    1
    39    30    29    1
    40     1    39    1
    41     1    40    1
    42     1    41    1
    43     2    42    1
    44     2    43    1
    45     5    44    1
    46     5    45    1
    47     5    46    1
    48    11    47    1
    49    11    48    1
    50    14    49    1
    51    22    50    1
    52    23    51    1
    53    24    52    1
    54    24    53    1
    55    24    54    1
    56    25    55    1
    57    25    56    1
    58    26    57    1
    59    26    58    1
    60    29    59    1
    61    29    60    1
    62    32    61    1
    63    32    62    1
    64    35    63    1
    65    36    64    1
    66    37    65    1
    67    38    66    1
