@<TRIPOS>MOLECULE
*****
 48 50 0 0 0
SMALL
GASTEIGER

@<TRIPOS>ATOM
      1 C           0.7847   -0.1091   -1.0298 C.3     1  LIG1        0.0004
      2 N           2.2032    0.1312   -0.9222 N.am    1  LIG1       -0.3132
      3 C           3.1163   -0.8774   -0.7326 C.2     1  LIG1        0.2623
      4 O           2.8007   -2.0664   -0.6193 O.2     1  LIG1       -0.2685
      5 C           4.5579   -0.4662   -0.7493 C.ar    1  LIG1        0.1288
      6 C           5.5018   -1.4193   -1.1025 C.ar    1  LIG1        0.0112
      7 C           6.8170   -1.0151   -1.3080 C.ar    1  LIG1        0.1321
      8 O           7.8099   -1.8687   -1.7543 O.3     1  LIG1       -0.4558
      9 C           7.4034   -2.9488   -2.5098 C.ar    1  LIG1        0.1313
     10 C           7.7254   -4.2254   -2.0609 C.ar    1  LIG1       -0.0174
     11 C           7.2552   -5.3478   -2.7557 C.ar    1  LIG1       -0.0342
     12 C           6.4543   -5.2135   -3.8970 C.ar    1  LIG1        0.0704
     13 N           5.8686   -6.3049   -4.6031 N.am    1  LIG1       -0.2667
     14 C           5.9468   -7.6354   -4.2388 C.2     1  LIG1        0.3082
     15 O           6.5719   -8.0204   -3.2570 O.2     1  LIG1       -0.2522
     16 N           5.2631   -8.4878   -5.0931 N.am    1  LIG1       -0.2692
     17 C           5.2082   -9.9050   -4.9765 C.ar    1  LIG1        0.0354
     18 C           5.7867  -10.6118   -3.9224 C.ar    1  LIG1       -0.0390
     19 C           5.6877  -12.0007   -3.8372 C.ar    1  LIG1       -0.0411
     20 C           5.0112  -12.7272   -4.8140 C.ar    1  LIG1        0.0527
     21 CL          4.9584  -14.4353   -4.5863 Cl      1  LIG1       -0.0830
     22 C           4.4235  -12.0615   -5.8938 C.ar    1  LIG1        0.0748
     23 C           3.6675  -12.7627   -6.9938 C.3     1  LIG1        0.4188
     24 F           3.5657  -14.1138   -6.9015 F       1  LIG1       -0.1658
     25 F           2.3833  -12.3101   -7.0866 F       1  LIG1       -0.1658
     26 F           4.2220  -12.5251   -8.2178 F       1  LIG1       -0.1658
     27 C           4.5334  -10.6427   -5.9609 C.ar    1  LIG1       -0.0274
     28 C           6.1977   -3.9164   -4.3600 C.ar    1  LIG1        0.1480
     29 F           5.4515   -3.7414   -5.4624 F       1  LIG1       -0.2034
     30 C           6.6755   -2.7893   -3.6901 C.ar    1  LIG1        0.0177
     31 C           7.1713    0.3065   -1.0545 C.ar    1  LIG1       -0.0012
     32 C           6.1697    1.1822   -0.6537 C.ar    1  LIG1        0.0319
     33 N           4.8619    0.8424   -0.5251 N.ar    1  LIG1       -0.2501
     34 H           0.2976    0.8050   -1.3778 H       1  LIG1        0.0426
     35 H           0.3928   -0.3880   -0.0487 H       1  LIG1        0.0426
     36 H           0.5851   -0.9201   -1.7392 H       1  LIG1        0.0426
     37 H           2.5592    1.0853   -0.8802 H       1  LIG1        0.1487
     38 H           5.1844   -2.4433   -1.2702 H       1  LIG1        0.0677
     39 H           8.3090   -4.3658   -1.1541 H       1  LIG1        0.0655
     40 H           7.5316   -6.3177   -2.3556 H       1  LIG1        0.0638
     41 H           5.3134   -6.0542   -5.4066 H       1  LIG1        0.1565
     42 H           4.7336   -8.0676   -5.8393 H       1  LIG1        0.1564
     43 H           6.3213  -10.1234   -3.1154 H       1  LIG1        0.0636
     44 H           6.1438  -12.5029   -2.9861 H       1  LIG1        0.0633
     45 H           4.0805  -10.1285   -6.8089 H       1  LIG1        0.0642
     46 H           6.4361   -1.8005   -4.0660 H       1  LIG1        0.0684
     47 H           8.1918    0.6535   -1.1842 H       1  LIG1        0.0669
     48 H           6.4023    2.2227   -0.4366 H       1  LIG1        0.0831
@<TRIPOS>BOND
     1     1     2    1
     2     2     3   am
     3     3     4    2
     4     3     5    1
     5     5     6   ar
     6     6     7   ar
     7     7     8    1
     8     8     9    1
     9     9    10   ar
    10    10    11   ar
    11    11    12   ar
    12    12    13    1
    13    13    14   am
    14    14    15    2
    15    14    16   am
    16    16    17    1
    17    17    18   ar
    18    18    19   ar
    19    19    20   ar
    20    20    21    1
    21    20    22   ar
    22    22    23    1
    23    23    24    1
    24    23    25    1
    25    23    26    1
    26    22    27   ar
    27    17    27   ar
    28    12    28   ar
    29    28    29    1
    30    28    30   ar
    31     9    30   ar
    32     7    31   ar
    33    31    32   ar
    34    32    33   ar
    35     5    33   ar
    36     1    34    1
    37     1    35    1
    38     1    36    1
    39     2    37    1
    40     6    38    1
    41    10    39    1
    42    11    40    1
    43    13    41    1
    44    16    42    1
    45    18    43    1
    46    19    44    1
    47    27    45    1
    48    30    46    1
    49    31    47    1
    50    32    48    1
