@<TRIPOS>MOLECULE
*****
 77 80 0 0 0
SMALL
GASTEIGER

@<TRIPOS>ATOM
      1 C           1.6088    4.5021   -4.6484 C.3     1  LIG1       -0.0649
      2 C           2.0910    5.8596   -4.1498 C.3     1  LIG1       -0.0500
      3 C           3.5307    5.8663   -3.5965 C.3     1  LIG1       -0.0072
      4 C           3.9903    7.2917   -3.2075 C.3     1  LIG1       -0.0500
      5 C           3.1552    7.9724   -2.1285 C.3     1  LIG1       -0.0649
      6 C           3.6909    4.8838   -2.4269 C.3     1  LIG1        0.0953
      7 O           5.0117    4.8555   -1.8720 O.3     1  LIG1       -0.4633
      8 C           5.9753    4.2139   -2.5877 C.2     1  LIG1        0.3245
      9 O           5.9282    3.9268   -3.7775 O.2     1  LIG1       -0.2491
     10 C           7.1365    3.8752   -1.6601 C.3     1  LIG1        0.1129
     11 C           6.7726    2.6508   -0.8152 C.3     1  LIG1       -0.0388
     12 N           8.3654    3.6481   -2.4285 N.3     1  LIG1       -0.1988
     13 P           8.9588    5.0289   -3.3822 P.3     1  LIG1        0.4624
     14 O           9.6922    5.4896   -2.1139 O.2     1  LIG1       -0.2281
     15 O           9.9759    4.0100   -4.1821 O.3     1  LIG1       -0.2843
     16 C           9.9070    3.8747   -5.5970 C.3     1  LIG1        0.0879
     17 C          10.9808    2.8724   -6.0229 C.3     1  LIG1        0.1133
     18 C          11.0488    2.5770   -7.5191 C.3     1  LIG1        0.1134
     19 C          12.4432    1.9621   -7.6479 C.3     1  LIG1        0.1313
     20 C          13.2611    2.7887   -6.6103 C.3     1  LIG1        0.2253
     21 O          12.3059    3.3276   -5.6601 O.3     1  LIG1       -0.3430
     22 C          13.8930    3.9417   -7.3235 C.1     1  LIG1        0.1070
     23 N          14.3444    4.8375   -7.9016 N.1     1  LIG1       -0.1930
     24 C          14.3105    2.0286   -5.8285 C.ar    1  LIG1        0.0921
     25 C          15.6907    2.2059   -5.7582 C.ar    1  LIG1       -0.0343
     26 C          16.2192    1.2356   -4.8752 C.ar    1  LIG1       -0.0311
     27 C          15.1551    0.4877   -4.4300 C.ar    1  LIG1        0.1053
     28 N          14.0141    0.9679   -4.9973 N.ar    1  LIG1       -0.2281
     29 N          12.7962    0.4142   -4.8078 N.ar    1  LIG1       -0.1545
     30 C          12.7939   -0.5973   -3.9928 C.ar    1  LIG1        0.1388
     31 N          13.8716   -1.1426   -3.3469 N.ar    1  LIG1       -0.2173
     32 C          15.0436   -0.6212   -3.5407 C.ar    1  LIG1        0.1436
     33 N          16.1051   -1.1780   -2.8914 N.pl3   1  LIG1       -0.3414
     34 O          12.3312    0.5529   -7.3991 O.3     1  LIG1       -0.3848
     35 O          10.9100    3.7407   -8.3336 O.3     1  LIG1       -0.3864
     36 O           9.5244    6.3454   -4.2914 O.3     1  LIG1       -0.4128
     37 C           9.5694    7.6513   -3.8830 C.ar    1  LIG1        0.1311
     38 C          10.5801    8.4274   -4.4601 C.ar    1  LIG1       -0.0194
     39 C          10.7652    9.7550   -4.0701 C.ar    1  LIG1       -0.0583
     40 C           9.9303   10.3144   -3.1068 C.ar    1  LIG1       -0.0615
     41 C           8.9008    9.5504   -2.5533 C.ar    1  LIG1       -0.0583
     42 C           8.7106    8.2198   -2.9482 C.ar    1  LIG1       -0.0194
     43 H           0.5468    4.5610   -4.9076 H       1  LIG1        0.0230
     44 H           1.7061    3.7177   -3.8937 H       1  LIG1        0.0230
     45 H           2.1606    4.1934   -5.5409 H       1  LIG1        0.0230
     46 H           1.3915    6.2037   -3.3814 H       1  LIG1        0.0266
     47 H           2.0259    6.5694   -4.9838 H       1  LIG1        0.0266
     48 H           4.1920    5.5491   -4.4119 H       1  LIG1        0.0333
     49 H           3.9846    7.9236   -4.1038 H       1  LIG1        0.0266
     50 H           5.0330    7.2593   -2.8674 H       1  LIG1        0.0266
     51 H           2.0945    8.0076   -2.3905 H       1  LIG1        0.0230
     52 H           3.4891    9.0064   -1.9949 H       1  LIG1        0.0230
     53 H           3.2566    7.4652   -1.1645 H       1  LIG1        0.0230
     54 H           3.4242    3.8584   -2.6974 H       1  LIG1        0.0700
     55 H           3.0229    5.1676   -1.6057 H       1  LIG1        0.0700
     56 H           7.2897    4.7237   -0.9883 H       1  LIG1        0.0578
     57 H           6.6653    1.7362   -1.4115 H       1  LIG1        0.0250
     58 H           5.8175    2.8054   -0.2973 H       1  LIG1        0.0250
     59 H           7.5323    2.4714   -0.0472 H       1  LIG1        0.0250
     60 H           8.2568    2.8700   -3.0673 H       1  LIG1        0.1354
     61 H          10.0876    4.8415   -6.0744 H       1  LIG1        0.0592
     62 H           8.9088    3.5159   -5.8675 H       1  LIG1        0.0592
     63 H          10.8169    1.9462   -5.4609 H       1  LIG1        0.0647
     64 H          10.2559    1.8817   -7.8108 H       1  LIG1        0.0647
     65 H          12.8494    2.0578   -8.6604 H       1  LIG1        0.0664
     66 H          16.2658    2.9624   -6.2818 H       1  LIG1        0.0637
     67 H          17.2576    1.1086   -4.5989 H       1  LIG1        0.0640
     68 H          11.8256   -1.0914   -3.8027 H       1  LIG1        0.1066
     69 H          15.8924   -2.0883   -2.5003 H       1  LIG1        0.1438
     70 H          16.9958   -1.1310   -3.3682 H       1  LIG1        0.1438
     71 H          12.2127    0.4219   -6.4341 H       1  LIG1        0.2101
     72 H          11.4823    4.4639   -8.0174 H       1  LIG1        0.2100
     73 H          11.2534    7.9858   -5.1905 H       1  LIG1        0.0654
     74 H          11.5721   10.3418   -4.5018 H       1  LIG1        0.0619
     75 H          10.0884   11.3396   -2.7802 H       1  LIG1        0.0618
     76 H           8.2581    9.9892   -1.7941 H       1  LIG1        0.0619
     77 H           7.9138    7.6470   -2.4886 H       1  LIG1        0.0654
@<TRIPOS>BOND
     1     1     2    1
     2     2     3    1
     3     3     4    1
     4     4     5    1
     5     3     6    1
     6     6     7    1
     7     7     8    1
     8     8     9    2
     9     8    10    1
    10    10    11    1
    11    10    12    1
    12    12    13    1
    13    13    14    2
    14    13    15    1
    15    15    16    1
    16    16    17    1
    17    17    18    1
    18    18    19    1
    19    19    20    1
    20    20    21    1
    21    17    21    1
    22    20    22    1
    23    22    23    3
    24    20    24    1
    25    24    25   ar
    26    25    26   ar
    27    26    27   ar
    28    27    28   ar
    29    24    28   ar
    30    28    29   ar
    31    29    30   ar
    32    30    31   ar
    33    31    32   ar
    34    27    32   ar
    35    32    33    1
    36    19    34    1
    37    18    35    1
    38    13    36    1
    39    36    37    1
    40    37    38   ar
    41    38    39   ar
    42    39    40   ar
    43    40    41   ar
    44    41    42   ar
    45    37    42   ar
    46     1    43    1
    47     1    44    1
    48     1    45    1
    49     2    46    1
    50     2    47    1
    51     3    48    1
    52     4    49    1
    53     4    50    1
    54     5    51    1
    55     5    52    1
    56     5    53    1
    57     6    54    1
    58     6    55    1
    59    10    56    1
    60    11    57    1
    61    11    58    1
    62    11    59    1
    63    12    60    1
    64    16    61    1
    65    16    62    1
    66    17    63    1
    67    18    64    1
    68    19    65    1
    69    25    66    1
    70    26    67    1
    71    30    68    1
    72    33    69    1
    73    33    70    1
    74    34    71    1
    75    35    72    1
    76    38    73    1
    77    39    74    1
    78    40    75    1
    79    41    76    1
    80    42    77    1
