@<TRIPOS>MOLECULE
*****
 61 62 0 0 0
SMALL
GASTEIGER

@<TRIPOS>ATOM
      1 C           4.7113   -5.1158   -8.3576 C.3     1  LIG1       -0.0572
      2 C           3.9386   -5.2686   -7.0328 C.3     1  LIG1       -0.0035
      3 C           2.4924   -5.6614   -7.3420 C.3     1  LIG1       -0.0572
      4 C           4.6206   -6.2759   -6.1105 C.ar    1  LIG1        0.0566
      5 N           5.2241   -7.2989   -6.7531 N.ar    1  LIG1       -0.2172
      6 C           5.9266   -8.1450   -6.0094 C.ar    1  LIG1        0.2377
      7 N           6.0527   -8.1182   -4.6869 N.ar    1  LIG1       -0.2125
      8 C           5.4022   -7.1356   -4.0163 C.ar    1  LIG1        0.0835
      9 C           4.6534   -6.1552   -4.7087 C.ar    1  LIG1        0.0224
     10 C           3.9420   -5.0573   -4.0351 C.2     1  LIG1       -0.0523
     11 C           2.6806   -5.1712   -3.5873 C.2     1  LIG1       -0.0551
     12 C           1.9746   -4.1379   -2.7438 C.3     1  LIG1        0.0760
     13 H           2.6410   -3.2935   -2.5326 H       1  LIG1        0.0638
     14 C           1.5049   -4.7749   -1.4173 C.3     1  LIG1        0.0034
     15 C           0.7875   -3.8058   -0.4545 C.3     1  LIG1        0.0679
     16 H           1.4529   -2.9676   -0.2172 H       1  LIG1        0.0599
     17 C           0.3518   -4.5260    0.8253 C.3     1  LIG1        0.0708
     18 C          -0.2667   -3.5440    1.7862 C.2     1  LIG1        0.3072
     19 O           0.3720   -2.8688    2.5766 O.2     1  LIG1       -0.2509
     20 O          -1.6016   -3.3960    1.6200 O.3     1  LIG1       -0.4806
     21 O          -0.3712   -3.2769   -1.1123 O.3     1  LIG1       -0.3912
     22 O           0.8807   -3.6563   -3.5091 O.3     1  LIG1       -0.3877
     23 C           5.6284   -7.2433   -2.5318 C.ar    1  LIG1        0.0013
     24 C           5.7115   -6.1337   -1.6700 C.ar    1  LIG1       -0.0498
     25 C           5.9936   -6.2728   -0.3004 C.ar    1  LIG1       -0.0258
     26 C           6.1900   -7.5319    0.2443 C.ar    1  LIG1        0.1234
     27 C           6.1156   -8.6572   -0.5573 C.ar    1  LIG1       -0.0258
     28 C           5.8495   -8.5105   -1.9288 C.ar    1  LIG1       -0.0498
     29 F           6.4513   -7.6557    1.5526 F       1  LIG1       -0.2055
     30 N           6.5584   -9.1791   -6.7271 N.pl3   1  LIG1       -0.1777
     31 C           7.9483   -9.4264   -6.3105 C.3     1  LIG1        0.0261
     32 S           5.5812  -10.5470   -6.8564 S.O2    1  LIG1        0.0446
     33 O           6.3288  -11.5584   -7.5639 O.2     1  LIG1       -0.1552
     34 O           4.9895  -10.8579   -5.5619 O.2     1  LIG1       -0.1552
     35 C           4.2746  -10.0088   -7.9485 C.3     1  LIG1        0.0739
     36 H           4.2779   -4.3219   -8.9748 H       1  LIG1        0.0236
     37 H           4.6882   -6.0386   -8.9514 H       1  LIG1        0.0236
     38 H           5.7623   -4.8662   -8.1742 H       1  LIG1        0.0236
     39 H           3.9451   -4.2811   -6.5580 H       1  LIG1        0.0359
     40 H           2.4403   -6.5962   -7.9120 H       1  LIG1        0.0236
     41 H           2.0057   -4.8815   -7.9399 H       1  LIG1        0.0236
     42 H           1.9032   -5.7951   -6.4305 H       1  LIG1        0.0236
     43 H           4.5139   -4.1447   -3.8875 H       1  LIG1        0.0622
     44 H           2.1133   -6.0763   -3.7998 H       1  LIG1        0.0598
     45 H           2.3731   -5.2076   -0.9047 H       1  LIG1        0.0318
     46 H           0.8166   -5.5975   -1.6561 H       1  LIG1        0.0318
     47 H           1.2062   -4.9908    1.3308 H       1  LIG1        0.0403
     48 H          -0.3705   -5.3250    0.6226 H       1  LIG1        0.0403
     49 H          -2.0053   -4.0004    0.9648 H       1  LIG1        0.2951
     50 H          -0.7590   -2.5920   -0.5285 H       1  LIG1        0.2098
     51 H           0.2216   -3.3067   -2.8739 H       1  LIG1        0.2102
     52 H           5.5851   -5.1253   -2.0464 H       1  LIG1        0.0625
     53 H           6.0701   -5.4017    0.3431 H       1  LIG1        0.0646
     54 H           6.2674   -9.6392   -0.1183 H       1  LIG1        0.0646
     55 H           5.8237   -9.4161   -2.5378 H       1  LIG1        0.0625
     56 H           8.4859   -8.4738   -6.2137 H       1  LIG1        0.0447
     57 H           8.4761  -10.0017   -7.0767 H       1  LIG1        0.0447
     58 H           8.0072   -9.9510   -5.3522 H       1  LIG1        0.0447
     59 H           4.7097   -9.6874   -8.8968 H       1  LIG1        0.0482
     60 H           3.7002   -9.2096   -7.4809 H       1  LIG1        0.0482
     61 H           3.6119  -10.8609   -8.1172 H       1  LIG1        0.0482
@<TRIPOS>BOND
     1     1     2    1
     2     2     3    1
     3     2     4    1
     4     4     5   ar
     5     5     6   ar
     6     6     7   ar
     7     7     8   ar
     8     8     9   ar
     9     4     9   ar
    10     9    10    1
    11    10    11    2
    12    12    14    1
    13    15    17    1
    14    17    18    1
    15    18    19    2
    16    18    20    1
    17    15    21    1
    18    12    22    1
    19     8    23    1
    20    23    24   ar
    21    24    25   ar
    22    25    26   ar
    23    26    27   ar
    24    27    28   ar
    25    23    28   ar
    26    26    29    1
    27     6    30    1
    28    30    31    1
    29    30    32    1
    30    32    33    2
    31    32    34    2
    32    32    35    1
    33    12    13    1
    34    12    11    1
    35    15    16    1
    36    15    14    1
    37     1    36    1
    38     1    37    1
    39     1    38    1
    40     2    39    1
    41     3    40    1
    42     3    41    1
    43     3    42    1
    44    10    43    1
    45    11    44    1
    46    14    45    1
    47    14    46    1
    48    17    47    1
    49    17    48    1
    50    20    49    1
    51    21    50    1
    52    22    51    1
    53    24    52    1
    54    25    53    1
    55    27    54    1
    56    28    55    1
    57    31    56    1
    58    31    57    1
    59    31    58    1
    60    35    59    1
    61    35    60    1
    62    35    61    1
