@<TRIPOS>MOLECULE
*****
 38 39 0 0 0
SMALL
GASTEIGER

@<TRIPOS>ATOM
      1 C           1.7763   -0.4692    2.1185 C.3     1  LIG1        0.0689
      2 S           0.3539   -0.7441    1.0482 S.O2    1  LIG1       -0.0286
      3 O           0.4450    0.1745   -0.0636 O.2     1  LIG1       -0.1743
      4 O           0.2141   -2.1728    0.8182 O.2     1  LIG1       -0.1743
      5 C          -1.0489   -0.2540    2.0306 C.3     1  LIG1        0.0888
      6 C          -2.3252   -0.4694    1.2373 C.3     1  LIG1        0.0635
      7 O          -3.4479   -0.0877    2.0270 O.3     1  LIG1       -0.3934
      8 C           3.1273   -0.6934    1.4027 C.3     1  LIG1       -0.0183
      9 C           3.3442   -2.1594    0.9495 C.3     1  LIG1       -0.0482
     10 C           4.6313   -2.8561    1.4264 C.3     1  LIG1       -0.0494
     11 C           5.5182   -1.9389    2.2675 C.3     1  LIG1       -0.0353
     12 C           4.6652   -1.2865    3.3863 C.3     1  LIG1       -0.0461
     13 C           4.2957   -0.2286    2.2976 C.3     1  LIG1       -0.0311
     14 C           5.7552   -0.4828    1.7117 C.3     1  LIG1       -0.0289
     15 C           6.0011   -0.3800    0.2038 C.3     1  LIG1       -0.0593
     16 C           6.8714    0.3120    2.4202 C.3     1  LIG1       -0.0593
     17 H           1.6651   -1.1165    2.9934 H       1  LIG1        0.0503
     18 H           1.7034    0.5739    2.4518 H       1  LIG1        0.0503
     19 H          -0.9331    0.7969    2.3125 H       1  LIG1        0.0523
     20 H          -1.0602   -0.8541    2.9458 H       1  LIG1        0.0523
     21 H          -2.4454   -1.5226    0.9626 H       1  LIG1        0.0573
     22 H          -2.3288    0.1271    0.3190 H       1  LIG1        0.0573
     23 H          -4.2431   -0.3595    1.5328 H       1  LIG1        0.2095
     24 H           3.1244   -0.0588    0.5068 H       1  LIG1        0.0319
     25 H           3.3292   -2.1776   -0.1490 H       1  LIG1        0.0269
     26 H           2.5045   -2.7954    1.2428 H       1  LIG1        0.0269
     27 H           5.1877   -3.2415    0.5646 H       1  LIG1        0.0268
     28 H           4.3550   -3.7339    2.0247 H       1  LIG1        0.0268
     29 H           6.4213   -2.4540    2.6126 H       1  LIG1        0.0306
     30 H           5.2393   -0.9063    4.2384 H       1  LIG1        0.0271
     31 H           3.8547   -1.8951    3.7979 H       1  LIG1        0.0271
     32 H           4.1433    0.7860    2.6837 H       1  LIG1        0.0309
     33 H           5.2661   -0.9146   -0.3995 H       1  LIG1        0.0235
     34 H           6.9834   -0.7959   -0.0510 H       1  LIG1        0.0235
     35 H           5.9862    0.6655   -0.1224 H       1  LIG1        0.0235
     36 H           6.7504    0.3611    3.5053 H       1  LIG1        0.0235
     37 H           6.8968    1.3456    2.0566 H       1  LIG1        0.0235
     38 H           7.8500   -0.1395    2.2211 H       1  LIG1        0.0235
@<TRIPOS>BOND
     1     1     2    1
     2     2     3    2
     3     2     4    2
     4     2     5    1
     5     5     6    1
     6     6     7    1
     7     1     8    1
     8     8     9    1
     9     9    10    1
    10    10    11    1
    11    11    12    1
    12    12    13    1
    13     8    13    1
    14    13    14    1
    15    11    14    1
    16    14    15    1
    17    14    16    1
    18     1    17    1
    19     1    18    1
    20     5    19    1
    21     5    20    1
    22     6    21    1
    23     6    22    1
    24     7    23    1
    25     8    24    1
    26     9    25    1
    27     9    26    1
    28    10    27    1
    29    10    28    1
    30    11    29    1
    31    12    30    1
    32    12    31    1
    33    13    32    1
    34    15    33    1
    35    15    34    1
    36    15    35    1
    37    16    36    1
    38    16    37    1
    39    16    38    1
