@<TRIPOS>MOLECULE
*****
 56 58 0 0 0
SMALL
GASTEIGER

@<TRIPOS>ATOM
      1 C           3.6494   -0.1895   -1.0429 C.3     1  LIG1       -0.0524
      2 C           3.3208    1.0998   -1.7956 C.3     1  LIG1       -0.0039
      3 N           4.1726    2.2471   -1.4312 N.3     1  LIG1       -0.3014
      4 C           3.8277    3.4662   -2.1873 C.3     1  LIG1       -0.0039
      5 C           2.4276    4.0168   -1.9244 C.3     1  LIG1       -0.0524
      6 C           5.6201    1.9452   -1.5475 C.3     1  LIG1        0.0145
      7 C           6.1171    1.5255   -2.9469 C.3     1  LIG1        0.0247
      8 N           7.5371    1.2634   -2.9876 N.am    1  LIG1       -0.3101
      9 C           8.0832    0.0234   -2.7352 C.2     1  LIG1        0.2461
     10 O           7.4151   -0.9625   -2.4632 O.2     1  LIG1       -0.2701
     11 C           9.5445   -0.0151   -2.8747 C.ar    1  LIG1        0.0604
     12 C          10.4153    1.0339   -2.5937 C.ar    1  LIG1        0.0257
     13 C          10.2693    2.4303   -2.1107 C.3     1  LIG1       -0.0237
     14 N          11.6737    0.5669   -2.8048 N.ar    1  LIG1       -0.3578
     15 C          11.6917   -0.6787   -3.3533 C.ar    1  LIG1        0.0438
     16 C          12.9262   -1.2347   -3.8127 C.2     1  LIG1       -0.0253
     17 C          14.1444   -0.6512   -3.8048 C.2     1  LIG1        0.0479
     18 C          14.6021    0.7074   -3.2926 C.2     1  LIG1        0.2490
     19 O          13.9714    1.5736   -2.7177 O.2     1  LIG1       -0.2698
     20 N          15.9380    0.8033   -3.5983 N.am    1  LIG1       -0.2809
     21 C          16.3907   -0.3416   -4.2136 C.ar    1  LIG1        0.0417
     22 C          15.3583   -1.2778   -4.3706 C.ar    1  LIG1        0.0111
     23 C          15.6204   -2.5007   -4.9563 C.ar    1  LIG1       -0.0168
     24 C          16.9322   -2.7516   -5.3676 C.ar    1  LIG1        0.1241
     25 F          17.2219   -3.9358   -5.9290 F       1  LIG1       -0.2055
     26 C          17.9588   -1.8045   -5.2053 C.ar    1  LIG1       -0.0247
     27 C          17.6927   -0.5709   -4.6208 C.ar    1  LIG1       -0.0372
     28 C          10.3715   -1.1196   -3.3382 C.ar    1  LIG1       -0.0134
     29 C           9.8633   -2.4570   -3.7822 C.3     1  LIG1       -0.0370
     30 H           2.8594   -0.9297   -1.2071 H       1  LIG1        0.0242
     31 H           3.7248   -0.0129    0.0350 H       1  LIG1        0.0242
     32 H           4.5871   -0.6361   -1.3887 H       1  LIG1        0.0242
     33 H           2.2789    1.3358   -1.5565 H       1  LIG1        0.0424
     34 H           3.3609    0.9052   -2.8744 H       1  LIG1        0.0424
     35 H           3.9391    3.3040   -3.2655 H       1  LIG1        0.0424
     36 H           4.5291    4.2638   -1.9098 H       1  LIG1        0.0424
     37 H           1.6407    3.3139   -2.2113 H       1  LIG1        0.0242
     38 H           2.2753    4.9250   -2.5192 H       1  LIG1        0.0242
     39 H           2.2949    4.2833   -0.8711 H       1  LIG1        0.0242
     40 H           5.8893    1.1730   -0.8160 H       1  LIG1        0.0442
     41 H           6.1886    2.8247   -1.2124 H       1  LIG1        0.0442
     42 H           5.9384    2.3259   -3.6713 H       1  LIG1        0.0475
     43 H           5.5989    0.6280   -3.2968 H       1  LIG1        0.0475
     44 H           8.1332    1.9546   -3.4148 H       1  LIG1        0.1491
     45 H           9.8315    2.4611   -1.1104 H       1  LIG1        0.0292
     46 H           9.6656    3.0282   -2.7970 H       1  LIG1        0.0292
     47 H          11.2459    2.9278   -2.0641 H       1  LIG1        0.0292
     48 H          12.4846    1.1408   -2.6286 H       1  LIG1        0.1656
     49 H          12.8410   -2.2255   -4.2478 H       1  LIG1        0.0646
     50 H          16.4860    1.6167   -3.3619 H       1  LIG1        0.1552
     51 H          14.8564   -3.2571   -5.0970 H       1  LIG1        0.0653
     52 H          18.9626   -2.0498   -5.5345 H       1  LIG1        0.0647
     53 H          18.4680    0.1709   -4.4849 H       1  LIG1        0.0637
     54 H           9.0922   -2.3398   -4.5504 H       1  LIG1        0.0278
     55 H           9.4382   -3.0154   -2.9419 H       1  LIG1        0.0278
     56 H          10.6617   -3.0697   -4.2132 H       1  LIG1        0.0278
@<TRIPOS>BOND
     1     1     2    1
     2     2     3    1
     3     3     4    1
     4     4     5    1
     5     3     6    1
     6     6     7    1
     7     7     8    1
     8     8     9   am
     9     9    10    2
    10     9    11    1
    11    11    12   ar
    12    12    13    1
    13    12    14   ar
    14    14    15   ar
    15    15    16    1
    16    16    17    2
    17    17    18    1
    18    18    19    2
    19    18    20   am
    20    20    21    1
    21    21    22   ar
    22    17    22    1
    23    22    23   ar
    24    23    24   ar
    25    24    25    1
    26    24    26   ar
    27    26    27   ar
    28    21    27   ar
    29    15    28   ar
    30    11    28   ar
    31    28    29    1
    32     1    30    1
    33     1    31    1
    34     1    32    1
    35     2    33    1
    36     2    34    1
    37     4    35    1
    38     4    36    1
    39     5    37    1
    40     5    38    1
    41     5    39    1
    42     6    40    1
    43     6    41    1
    44     7    42    1
    45     7    43    1
    46     8    44    1
    47    13    45    1
    48    13    46    1
    49    13    47    1
    50    14    48    1
    51    16    49    1
    52    20    50    1
    53    23    51    1
    54    26    52    1
    55    27    53    1
    56    29    54    1
    57    29    55    1
    58    29    56    1
