@<TRIPOS>MOLECULE
*****
 81 82 0 0 0
SMALL
GASTEIGER

@<TRIPOS>ATOM
      1 C           7.6817    2.6098   -1.2241 C.3     1  LIG1       -0.0359
      2 C           8.2117    1.8560   -2.4179 C.ar    1  LIG1       -0.0024
      3 C           8.5581    0.4878   -2.3386 C.ar    1  LIG1       -0.0021
      4 C           8.3109   -0.2892   -1.0666 C.3     1  LIG1       -0.0359
      5 C           9.0942   -0.1632   -3.4693 C.ar    1  LIG1        0.1281
      6 O           9.3796   -1.5032   -3.3335 O.3     1  LIG1       -0.4854
      7 C           9.7213   -2.2570   -4.5191 C.3     1  LIG1        0.1082
      8 C           8.4172   -2.6497   -5.2399 C.3     1  LIG1       -0.0249
      9 C          10.4624   -3.5385   -4.0234 C.3     1  LIG1       -0.0132
     10 C          10.9291   -4.4901   -5.1394 C.3     1  LIG1       -0.0492
     11 C          11.6655   -5.7315   -4.6095 C.3     1  LIG1       -0.0503
     12 C          12.1767   -6.6652   -5.7400 C.3     1  LIG1       -0.0439
     13 H          12.8175   -6.0693   -6.4031 H       1  LIG1        0.0298
     14 C          11.0158   -7.2167   -6.5777 C.3     1  LIG1       -0.0624
     15 C          13.0423   -7.8103   -5.1531 C.3     1  LIG1       -0.0505
     16 C          13.6954   -8.6933   -6.2310 C.3     1  LIG1       -0.0526
     17 C          14.5726   -9.7980   -5.6269 C.3     1  LIG1       -0.0505
     18 C          15.2219  -10.7486   -6.6613 C.3     1  LIG1       -0.0439
     19 H          15.8558  -11.4467   -6.0970 H       1  LIG1        0.0298
     20 C          16.1556   -9.9779   -7.6074 C.3     1  LIG1       -0.0624
     21 C          14.2035  -11.5967   -7.4629 C.3     1  LIG1       -0.0505
     22 C          13.2687  -12.4457   -6.5811 C.3     1  LIG1       -0.0526
     23 C          12.2879  -13.2808   -7.4172 C.3     1  LIG1       -0.0507
     24 C          11.2871  -14.1135   -6.5849 C.3     1  LIG1       -0.0467
     25 C          10.3509  -14.8903   -7.5183 C.3     1  LIG1       -0.0627
     26 C          11.9716  -15.0921   -5.6290 C.3     1  LIG1       -0.0627
     27 C          10.6647   -1.4288   -5.3965 C.3     1  LIG1       -0.0091
     28 C          10.0047   -0.1339   -5.8214 C.3     1  LIG1       -0.0202
     29 C           9.3369    0.5517   -4.6614 C.ar    1  LIG1        0.0011
     30 C           8.9443    1.9037   -4.7637 C.ar    1  LIG1       -0.0021
     31 C           9.0925    2.6525   -6.0659 C.3     1  LIG1       -0.0359
     32 C           8.4384    2.5481   -3.6247 C.ar    1  LIG1        0.1234
     33 O           8.1539    3.8862   -3.6371 O.3     1  LIG1       -0.5062
     34 H           7.0207    1.9846   -0.6144 H       1  LIG1        0.0279
     35 H           7.0802    3.4760   -1.5171 H       1  LIG1        0.0279
     36 H           8.5165    2.9597   -0.6078 H       1  LIG1        0.0279
     37 H           8.5491    0.3121   -0.1835 H       1  LIG1        0.0279
     38 H           8.9399   -1.1811   -0.9956 H       1  LIG1        0.0279
     39 H           7.2620   -0.5979   -1.0200 H       1  LIG1        0.0279
     40 H           7.7703   -3.2366   -4.5780 H       1  LIG1        0.0268
     41 H           8.6090   -3.2290   -6.1476 H       1  LIG1        0.0268
     42 H           7.8243   -1.7767   -5.5315 H       1  LIG1        0.0268
     43 H           9.8074   -4.0853   -3.3315 H       1  LIG1        0.0304
     44 H          11.3281   -3.2366   -3.4187 H       1  LIG1        0.0304
     45 H          11.6010   -3.9662   -5.8268 H       1  LIG1        0.0267
     46 H          10.0546   -4.8049   -5.7132 H       1  LIG1        0.0267
     47 H          11.0029   -6.2890   -3.9368 H       1  LIG1        0.0268
     48 H          12.5220   -5.3961   -4.0111 H       1  LIG1        0.0268
     49 H          11.3751   -7.8115   -7.4219 H       1  LIG1        0.0232
     50 H          10.4168   -6.4153   -7.0174 H       1  LIG1        0.0232
     51 H          10.3548   -7.8449   -5.9716 H       1  LIG1        0.0232
     52 H          12.4315   -8.4357   -4.4902 H       1  LIG1        0.0268
     53 H          13.8365   -7.3743   -4.5334 H       1  LIG1        0.0268
     54 H          14.2976   -8.0560   -6.8880 H       1  LIG1        0.0265
     55 H          12.9213   -9.1597   -6.8455 H       1  LIG1        0.0265
     56 H          13.9776  -10.3868   -4.9200 H       1  LIG1        0.0268
     57 H          15.3677   -9.3374   -5.0273 H       1  LIG1        0.0268
     58 H          16.7758  -10.6645   -8.1939 H       1  LIG1        0.0232
     59 H          16.8330   -9.3279   -7.0413 H       1  LIG1        0.0232
     60 H          15.5990   -9.3521   -8.3127 H       1  LIG1        0.0232
     61 H          14.7579  -12.2703   -8.1305 H       1  LIG1        0.0268
     62 H          13.6049  -10.9479   -8.1125 H       1  LIG1        0.0268
     63 H          12.6854  -11.8010   -5.9160 H       1  LIG1        0.0265
     64 H          13.8824  -13.1006   -5.9533 H       1  LIG1        0.0265
     65 H          12.8517  -13.9436   -8.0843 H       1  LIG1        0.0268
     66 H          11.7149  -12.5989   -8.0595 H       1  LIG1        0.0268
     67 H          10.6718  -13.4278   -5.9882 H       1  LIG1        0.0295
     68 H          10.8988  -15.6486   -8.0888 H       1  LIG1        0.0232
     69 H           9.8583  -14.2204   -8.2306 H       1  LIG1        0.0232
     70 H           9.5681  -15.4020   -6.9473 H       1  LIG1        0.0232
     71 H          12.6330  -15.7771   -6.1699 H       1  LIG1        0.0232
     72 H          11.2293  -15.6943   -5.0928 H       1  LIG1        0.0232
     73 H          12.5633  -14.5670   -4.8738 H       1  LIG1        0.0232
     74 H          10.9818   -1.9712   -6.2910 H       1  LIG1        0.0307
     75 H          11.5686   -1.1874   -4.8190 H       1  LIG1        0.0307
     76 H           9.2638   -0.3284   -6.6059 H       1  LIG1        0.0316
     77 H          10.7804    0.5141   -6.2487 H       1  LIG1        0.0316
     78 H           8.9808    1.9901   -6.9304 H       1  LIG1        0.0279
     79 H          10.0704    3.1389   -6.1124 H       1  LIG1        0.0279
     80 H           8.3079    3.4080   -6.1815 H       1  LIG1        0.0279
     81 H           8.7009    4.3150   -4.3220 H       1  LIG1        0.2922
@<TRIPOS>BOND
     1     1     2    1
     2     2     3   ar
     3     3     4    1
     4     3     5   ar
     5     5     6    1
     6     6     7    1
     7     7     8    1
     8     7     9    1
     9     9    10    1
    10    10    11    1
    11    12    14    1
    12    12    15    1
    13    15    16    1
    14    16    17    1
    15    18    20    1
    16    18    21    1
    17    21    22    1
    18    22    23    1
    19    23    24    1
    20    24    25    1
    21    24    26    1
    22     7    27    1
    23    27    28    1
    24    28    29    1
    25     5    29   ar
    26    29    30   ar
    27    30    31    1
    28    30    32   ar
    29     2    32   ar
    30    32    33    1
    31    12    13    1
    32    12    11    1
    33    18    19    1
    34    18    17    1
    35     1    34    1
    36     1    35    1
    37     1    36    1
    38     4    37    1
    39     4    38    1
    40     4    39    1
    41     8    40    1
    42     8    41    1
    43     8    42    1
    44     9    43    1
    45     9    44    1
    46    10    45    1
    47    10    46    1
    48    11    47    1
    49    11    48    1
    50    14    49    1
    51    14    50    1
    52    14    51    1
    53    15    52    1
    54    15    53    1
    55    16    54    1
    56    16    55    1
    57    17    56    1
    58    17    57    1
    59    20    58    1
    60    20    59    1
    61    20    60    1
    62    21    61    1
    63    21    62    1
    64    22    63    1
    65    22    64    1
    66    23    65    1
    67    23    66    1
    68    24    67    1
    69    25    68    1
    70    25    69    1
    71    25    70    1
    72    26    71    1
    73    26    72    1
    74    26    73    1
    75    27    74    1
    76    27    75    1
    77    28    76    1
    78    28    77    1
    79    31    78    1
    80    31    79    1
    81    31    80    1
    82    33    81    1
