@<TRIPOS>MOLECULE
*****
 93 99 0 0 0
SMALL
GASTEIGER

@<TRIPOS>ATOM
      1 C          -1.7243   -2.6554   -1.6201 C.3     1  UNL1        0.0000
      2 C          -0.2370   -2.7864   -1.5022 C.ar    1  UNL1        0.0000
      3 C           0.4694   -3.7783   -2.1572 C.ar    1  UNL1        0.0000
      4 C           1.7910   -3.6161   -1.8188 C.ar    1  UNL1        0.0000
      5 C           2.9110   -4.4919   -2.2976 C.3     1  UNL1        0.0000
      6 N           1.9271   -2.5595   -0.9894 N.ar    1  UNL1        0.0000
      7 C           0.6981   -2.0295   -0.7726 C.ar    1  UNL1        0.0000
      8 C           0.5092   -0.8474    0.1465 C.2     1  UNL1        0.0000
      9 C          -0.8598   -0.2639    0.4709 C.3     1  UNL1        0.0000
     10 C          -1.0421    1.1593   -0.1141 C.3     1  UNL1        0.0000
     11 C          -2.3309    1.9078    0.3475 C.3     1  UNL1        0.0000
     12 H          -3.1955    1.3819   -0.1132 H       1  UNL1        0.0000
     13 C          -2.5045    1.7891    1.8690 C.3     1  UNL1        0.0000
     14 C          -2.3252    3.3896   -0.2172 C.3     1  UNL1        0.0000
     15 C          -1.2574    4.3196    0.4059 C.3     1  UNL1        0.0000
     16 C          -1.9387    4.9083    1.6485 C.3     1  UNL1        0.0000
     17 C          -3.3319    5.2511    1.1145 C.3     1  UNL1        0.0000
     18 C          -4.5099    5.7662    2.0380 C.3     1  UNL1        0.0000
     19 C          -4.1064    5.7941    3.5195 C.3     1  UNL1        0.0000
     20 C          -4.0929    4.3788    4.0456 C.2     1  UNL1        0.0000
     21 C          -5.1115    3.5280    3.7837 C.2     1  UNL1        0.0000
     22 C          -5.0731    2.1426    4.4127 C.3     1  UNL1        0.0000
     23 C          -6.0492    1.1374    3.7827 C.3     1  UNL1        0.0000
     24 H          -5.6473    0.8488    2.7850 H       1  UNL1        0.0000
     25 O          -6.1212   -0.0340    4.5546 O.3     1  UNL1        0.0000
     26 C          -7.4388    1.7471    3.5582 C.3     1  UNL1        0.0000
     27 C          -7.2889    2.8926    2.5484 C.3     1  UNL1        0.0000
     28 C          -6.3447    4.0496    3.0331 C.3     1  UNL1        0.0000
     29 C          -7.1880    4.8279    4.0978 C.3     1  UNL1        0.0000
     30 C          -5.9189    5.0556    1.8442 C.3     1  UNL1        0.0000
     31 C          -6.0561    4.5252    0.3886 C.3     1  UNL1        0.0000
     32 C          -4.9581    3.5114    0.0511 C.3     1  UNL1        0.0000
     33 C          -3.6209    4.2444   -0.0273 C.3     1  UNL1        0.0000
     34 C           1.6312   -0.3263    0.7408 C.2     1  UNL1        0.0000
     35 C           1.7097    0.7234    1.8405 C.3     1  UNL1        0.0000
     36 C           1.4471    0.0903    3.2157 C.3     1  UNL1        0.0000
     37 C           3.1657    1.1632    1.7062 C.3     1  UNL1        0.0000
     38 C           3.9222   -0.0989    1.2810 C.3     1  UNL1        0.0000
     39 C           5.2033    0.2726    0.5212 C.3     1  UNL1        0.0000
     40 N           2.9441   -0.8105    0.4817 N.pl3   1  UNL1        0.0000
     41 B           3.2387   -2.0347   -0.3809 B       1  UNL1        0.0000
     42 F           4.1447   -1.6665   -1.4588 F       1  UNL1        0.0000
     43 F           3.8497   -3.0702    0.4395 F       1  UNL1        0.0000
     44 H          -2.1294   -3.4255   -2.3108 H       1  UNL1        0.0000
     45 H          -1.9871   -1.6578   -2.0291 H       1  UNL1        0.0000
     46 H          -2.2021   -2.8253   -0.6335 H       1  UNL1        0.0000
     47 H           0.0614   -4.5443   -2.8045 H       1  UNL1        0.0000
     48 H           2.5259   -5.2928   -2.9634 H       1  UNL1        0.0000
     49 H           3.4111   -4.9669   -1.4280 H       1  UNL1        0.0000
     50 H           3.6496   -3.8856   -2.8608 H       1  UNL1        0.0000
     51 H          -0.9432   -0.2839    1.5682 H       1  UNL1        0.0000
     52 H          -1.6988   -0.8587    0.1032 H       1  UNL1        0.0000
     53 H          -1.0280    1.0975   -1.2246 H       1  UNL1        0.0000
     54 H          -0.1778    1.7698    0.1498 H       1  UNL1        0.0000
     55 H          -2.7409    0.7467    2.1619 H       1  UNL1        0.0000
     56 H          -3.3568    2.3852    2.2104 H       1  UNL1        0.0000
     57 H          -1.5808    2.0900    2.4044 H       1  UNL1        0.0000
     58 H          -2.1473    3.2534   -1.3079 H       1  UNL1        0.0000
     59 H          -1.0974    5.1646   -0.3034 H       1  UNL1        0.0000
     60 H          -0.2605    3.8795    0.5985 H       1  UNL1        0.0000
     61 H          -1.3920    5.7805    2.0689 H       1  UNL1        0.0000
     62 H          -2.0018    4.1703    2.4506 H       1  UNL1        0.0000
     63 H          -3.0500    6.1795    0.5531 H       1  UNL1        0.0000
     64 H          -4.6667    6.8242    1.7210 H       1  UNL1        0.0000
     65 H          -4.8313    6.4062    4.0757 H       1  UNL1        0.0000
     66 H          -3.1298    6.2938    3.6904 H       1  UNL1        0.0000
     67 H          -3.2242    4.0350    4.6010 H       1  UNL1        0.0000
     68 H          -5.3124    2.2836    5.4889 H       1  UNL1        0.0000
     69 H          -4.0547    1.7007    4.3592 H       1  UNL1        0.0000
     70 H          -6.5427    0.2034    5.4216 H       1  UNL1        0.0000
     71 H          -7.8953    2.0737    4.5140 H       1  UNL1        0.0000
     72 H          -8.1049    0.9751    3.1138 H       1  UNL1        0.0000
     73 H          -8.2836    3.2962    2.2573 H       1  UNL1        0.0000
     74 H          -6.8902    2.3950    1.6487 H       1  UNL1        0.0000
     75 H          -7.4672    4.1825    4.9547 H       1  UNL1        0.0000
     76 H          -8.1280    5.2120    3.6464 H       1  UNL1        0.0000
     77 H          -6.6905    5.6969    4.5478 H       1  UNL1        0.0000
     78 H          -6.6984    5.8499    1.8832 H       1  UNL1        0.0000
     79 H          -5.9937    5.3730   -0.3304 H       1  UNL1        0.0000
     80 H          -7.0619    4.0854    0.2344 H       1  UNL1        0.0000
     81 H          -5.1547    3.0380   -0.9351 H       1  UNL1        0.0000
     82 H          -4.9498    2.7159    0.8094 H       1  UNL1        0.0000
     83 H          -3.7119    4.8883   -0.9373 H       1  UNL1        0.0000
     84 H           1.0820    1.6248    1.7495 H       1  UNL1        0.0000
     85 H           2.1059   -0.7854    3.3941 H       1  UNL1        0.0000
     86 H           0.3962   -0.2431    3.3118 H       1  UNL1        0.0000
     87 H           1.6342    0.8412    4.0126 H       1  UNL1        0.0000
     88 H           3.5964    1.7267    2.5615 H       1  UNL1        0.0000
     89 H           3.1690    1.8516    0.8272 H       1  UNL1        0.0000
     90 H           4.1825   -0.7292    2.1593 H       1  UNL1        0.0000
     91 H           4.9671    0.8663   -0.3882 H       1  UNL1        0.0000
     92 H           5.7533   -0.6427    0.2206 H       1  UNL1        0.0000
     93 H           5.8701    0.8702    1.1785 H       1  UNL1        0.0000
@<TRIPOS>BOND
     1     1     2    1
     2     2     3   ar
     3     3     4   ar
     4     4     5    1
     5     4     6   ar
     6     6     7   ar
     7     2     7   ar
     8     7     8    1
     9     8     9    1
    10     9    10    1
    11    10    11    1
    12    11    12    1
    13    11    13    1
    14    14    15    1
    15    15    16    1
    16    16    17    1
    17    17    18    1
    18    18    19    1
    19    19    20    1
    20    20    21    2
    21    21    22    1
    22    22    23    1
    23    23    26    1
    24    26    27    1
    25    27    28    1
    26    21    28    1
    27    28    30    1
    28    18    30    1
    29    30    31    1
    30    31    32    1
    31    32    33    1
    32    14    33    1
    33    17    33    1
    34     8    34    2
    35    34    35    1
    36    35    36    1
    37    35    37    1
    38    37    38    1
    39    38    39    1
    40    38    40    1
    41    34    40    1
    42    40    41    1
    43     6    41    1
    44    41    42    1
    45    41    43    1
    46    11    14    1
    47    28    29    1
    48    23    25    1
    49    23    24    1
    50     1    44    1
    51     1    45    1
    52     1    46    1
    53     3    47    1
    54     5    48    1
    55     5    49    1
    56     5    50    1
    57     9    51    1
    58     9    52    1
    59    10    53    1
    60    10    54    1
    61    13    55    1
    62    13    56    1
    63    13    57    1
    64    14    58    1
    65    15    59    1
    66    15    60    1
    67    16    61    1
    68    16    62    1
    69    17    63    1
    70    18    64    1
    71    19    65    1
    72    19    66    1
    73    20    67    1
    74    22    68    1
    75    22    69    1
    76    25    70    1
    77    26    71    1
    78    26    72    1
    79    27    73    1
    80    27    74    1
    81    29    75    1
    82    29    76    1
    83    29    77    1
    84    30    78    1
    85    31    79    1
    86    31    80    1
    87    32    81    1
    88    32    82    1
    89    33    83    1
    90    35    84    1
    91    36    85    1
    92    36    86    1
    93    36    87    1
    94    37    88    1
    95    37    89    1
    96    38    90    1
    97    39    91    1
    98    39    92    1
    99    39    93    1
