WARNING: damped steplength 0.00758379 to 0.00442264
@<TRIPOS>MOLECULE
*****
 107 110 0 0 0
SMALL
GASTEIGER

@<TRIPOS>ATOM
      1 C           8.4115    4.5501  -11.2298 C.3     1  LIG1       -0.0653
      2 C           9.8121    4.4228  -10.6580 C.3     1  LIG1       -0.0559
      3 C          10.3006    2.9619  -10.6502 C.3     1  LIG1       -0.0533
      4 C          11.7089    2.8462  -10.0677 C.3     1  LIG1       -0.0531
      5 C          12.2529    1.4187   -9.9001 C.3     1  LIG1       -0.0531
      6 C          13.6851    1.2617   -9.3211 C.3     1  LIG1       -0.0531
      7 C          13.9099    1.5773   -7.8247 C.3     1  LIG1       -0.0531
      8 C          13.7771    3.0362   -7.5574 C.3     1  LIG1       -0.0530
      9 C          13.8035    3.5536   -6.1518 C.3     1  LIG1       -0.0510
     10 C          13.2127    4.9479   -6.0476 C.3     1  LIG1       -0.0295
     11 C          11.8562    5.4066   -6.6910 C.3     1  LIG1        0.0480
     12 O          11.7694    5.3572   -8.1072 O.3     1  LIG1       -0.3762
     13 C          12.5864    6.1538   -9.0021 C.3     1  LIG1        0.0624
     14 H          12.1779    5.8164   -9.9623 H       1  LIG1        0.0599
     15 C          12.4462    7.6819   -9.0136 C.3     1  LIG1       -0.0255
     16 C          13.7201    8.4827   -8.5156 C.3     1  LIG1       -0.0413
     17 C          14.4087    7.7964   -7.3228 C.3     1  LIG1       -0.0078
     18 C          13.2967    7.8704   -6.2240 C.3     1  LIG1       -0.0556
     19 C          14.9844    6.4437   -8.0163 C.2     1  LIG1       -0.0648
     20 C          16.0837    5.8504   -7.6624 C.2     1  LIG1       -0.0839
     21 C          16.9610    6.2700   -6.4894 C.3     1  LIG1       -0.0311
     22 C          16.1295    7.2207   -5.6238 C.3     1  LIG1       -0.0307
     23 C          15.6345    8.4068   -6.5191 C.3     1  LIG1       -0.0285
     24 C          15.3319    9.7130   -5.7200 C.3     1  LIG1       -0.0486
     25 C          16.0204    9.8666   -4.3304 C.3     1  LIG1       -0.0468
     26 C          15.9867    8.5752   -3.4348 C.3     1  LIG1       -0.0259
     27 C          14.5021    8.3644   -3.0810 C.3     1  LIG1       -0.0590
     28 C          16.9398    8.5111   -2.1511 C.3     1  LIG1       -0.0328
     29 C          16.8164    7.1836   -1.2188 C.3     1  LIG1       -0.0405
     30 H          17.1864    6.3256   -1.7920 H       1  LIG1        0.0301
     31 C          15.3860    6.8382   -0.8474 C.3     1  LIG1       -0.0621
     32 C          17.7116    7.2165    0.0668 C.3     1  LIG1       -0.0502
     33 C          17.5268    6.0976    1.1358 C.3     1  LIG1       -0.0526
     34 C          16.2656    6.0030    2.0386 C.3     1  LIG1       -0.0507
     35 C          15.7880    7.2041    2.8893 C.3     1  LIG1       -0.0467
     36 C          15.5281    8.5281    2.1767 C.3     1  LIG1       -0.0627
     37 C          14.4548    6.8390    3.5684 C.3     1  LIG1       -0.0627
     38 C          18.3401    8.5607   -2.8191 C.3     1  LIG1       -0.0492
     39 C          18.1855    7.8688   -4.1842 C.3     1  LIG1       -0.0492
     40 C          16.7063    7.4854   -4.2538 C.3     1  LIG1       -0.0320
     41 C          14.0538    5.7988   -9.0847 C.3     1  LIG1       -0.0048
     42 H           7.9708    5.5140  -10.9526 H       1  LIG1        0.0230
     43 H           7.7570    3.7577  -10.8555 H       1  LIG1        0.0230
     44 H           8.4417    4.4941  -12.3214 H       1  LIG1        0.0230
     45 H           9.7989    4.8245   -9.6373 H       1  LIG1        0.0263
     46 H          10.4924    5.0529  -11.2425 H       1  LIG1        0.0263
     47 H          10.2724    2.5468  -11.6592 H       1  LIG1        0.0265
     48 H           9.6200    2.3787  -10.0173 H       1  LIG1        0.0265
     49 H          11.5664    3.2755   -9.0903 H       1  LIG1        0.0265
     50 H          12.4182    3.4609  -10.6335 H       1  LIG1        0.0265
     51 H          12.2573    0.9539  -10.8935 H       1  LIG1        0.0265
     52 H          11.5651    0.8387   -9.2771 H       1  LIG1        0.0265
     53 H          14.3896    1.8324   -9.9436 H       1  LIG1        0.0265
     54 H          13.9684    0.2090   -9.4369 H       1  LIG1        0.0265
     55 H          14.9436    1.3199   -7.5618 H       1  LIG1        0.0265
     56 H          13.2313    1.0192   -7.1816 H       1  LIG1        0.0265
     57 H          12.8399    3.3646   -7.9420 H       1  LIG1        0.0265
     58 H          14.6250    3.4439   -8.0998 H       1  LIG1        0.0265
     59 H          14.8612    3.6112   -5.8516 H       1  LIG1        0.0266
     60 H          13.2631    2.9256   -5.4547 H       1  LIG1        0.0266
     61 H          13.9523    5.4983   -6.5618 H       1  LIG1        0.0287
     62 H          13.3443    5.2854   -5.0106 H       1  LIG1        0.0287
     63 H          11.4943    6.4224   -6.4933 H       1  LIG1        0.0560
     64 H          11.0682    4.8475   -6.1776 H       1  LIG1        0.0560
     65 H          11.5362    7.9786   -8.4882 H       1  LIG1        0.0290
     66 H          12.3082    7.9699  -10.0663 H       1  LIG1        0.0290
     67 H          13.4035    9.4928   -8.2608 H       1  LIG1        0.0274
     68 H          14.4289    8.5640   -9.3485 H       1  LIG1        0.0274
     69 H          12.9328    6.9879   -5.7889 H       1  LIG1        0.0238
     70 H          12.4515    8.5261   -6.4312 H       1  LIG1        0.0238
     71 H          13.6827    8.1560   -5.2667 H       1  LIG1        0.0238
     72 H          16.3982    4.8700   -8.1000 H       1  LIG1        0.0572
     73 H          17.8583    6.7589   -6.8693 H       1  LIG1        0.0310
     74 H          17.2689    5.4000   -5.9089 H       1  LIG1        0.0310
     75 H          15.2566    6.6234   -5.3277 H       1  LIG1        0.0309
     76 H          16.4197    8.6599   -7.2409 H       1  LIG1        0.0312
     77 H          14.2599    9.8923   -5.5816 H       1  LIG1        0.0268
     78 H          15.6010   10.5560   -6.3624 H       1  LIG1        0.0268
     79 H          15.5214   10.6868   -3.7975 H       1  LIG1        0.0271
     80 H          17.0374   10.2120   -4.5196 H       1  LIG1        0.0271
     81 H          14.2673    8.6677   -2.0586 H       1  LIG1        0.0235
     82 H          14.1728    7.3387   -3.2755 H       1  LIG1        0.0235
     83 H          13.8210    9.0157   -3.6303 H       1  LIG1        0.0235
     84 H          16.7972    9.3927   -1.5143 H       1  LIG1        0.0309
     85 H          14.9012    7.6742   -0.3589 H       1  LIG1        0.0233
     86 H          15.3320    5.9466   -0.2468 H       1  LIG1        0.0233
     87 H          14.7620    6.5297   -1.6736 H       1  LIG1        0.0233
     88 H          17.6644    8.1923    0.5464 H       1  LIG1        0.0268
     89 H          18.7539    7.1248   -0.2733 H       1  LIG1        0.0268
     90 H          18.3922    6.1448    1.8128 H       1  LIG1        0.0265
     91 H          17.6358    5.1287    0.6226 H       1  LIG1        0.0265
     92 H          16.4681    5.1758    2.7387 H       1  LIG1        0.0268
     93 H          15.4092    5.6004    1.4973 H       1  LIG1        0.0268
     94 H          16.5370    7.3771    3.6695 H       1  LIG1        0.0295
     95 H          14.9148    8.3918    1.2961 H       1  LIG1        0.0232
     96 H          16.4445    9.0551    1.9156 H       1  LIG1        0.0232
     97 H          14.9377    9.2079    2.8009 H       1  LIG1        0.0232
     98 H          13.6445    6.7870    2.8290 H       1  LIG1        0.0232
     99 H          14.1786    7.6088    4.2980 H       1  LIG1        0.0232
    100 H          14.5042    5.8804    4.0901 H       1  LIG1        0.0232
    101 H          19.1372    8.1008   -2.2304 H       1  LIG1        0.0268
    102 H          18.6335    9.6055   -2.9799 H       1  LIG1        0.0268
    103 H          18.8282    6.9858   -4.2615 H       1  LIG1        0.0268
    104 H          18.4714    8.5489   -4.9950 H       1  LIG1        0.0268
    105 H          16.6124    6.5270   -3.7264 H       1  LIG1        0.0309
    106 H          14.0574    4.7345   -9.0344 H       1  LIG1        0.0335
    107 H          14.4683    5.9702  -10.0850 H       1  LIG1        0.0335
@<TRIPOS>BOND
     1     1     2    1
     2     2     3    1
     3     3     4    1
     4     4     5    1
     5     5     6    1
     6     6     7    1
     7     7     8    1
     8     8     9    1
     9     9    10    1
    10    10    11    1
    11    11    12    1
    12    13    15    1
    13    15    16    1
    14    16    17    1
    15    17    19    1
    16    19    20    2
    17    20    21    1
    18    21    22    1
    19    22    23    1
    20    17    23    1
    21    23    24    1
    22    24    25    1
    23    25    26    1
    24    26    28    1
    25    29    32    1
    26    32    33    1
    27    33    34    1
    28    34    35    1
    29    35    36    1
    30    35    37    1
    31    28    38    1
    32    38    39    1
    33    39    40    1
    34    22    40    1
    35    26    40    1
    36    19    41    1
    37    13    41    1
    38    17    18    1
    39    26    27    1
    40    28    29    1
    41    13    14    1
    42    13    12    1
    43    29    31    1
    44    29    30    1
    45     1    42    1
    46     1    43    1
    47     1    44    1
    48     2    45    1
    49     2    46    1
    50     3    47    1
    51     3    48    1
    52     4    49    1
    53     4    50    1
    54     5    51    1
    55     5    52    1
    56     6    53    1
    57     6    54    1
    58     7    55    1
    59     7    56    1
    60     8    57    1
    61     8    58    1
    62     9    59    1
    63     9    60    1
    64    10    61    1
    65    10    62    1
    66    11    63    1
    67    11    64    1
    68    15    65    1
    69    15    66    1
    70    16    67    1
    71    16    68    1
    72    18    69    1
    73    18    70    1
    74    18    71    1
    75    20    72    1
    76    21    73    1
    77    21    74    1
    78    22    75    1
    79    23    76    1
    80    24    77    1
    81    24    78    1
    82    25    79    1
    83    25    80    1
    84    27    81    1
    85    27    82    1
    86    27    83    1
    87    28    84    1
    88    31    85    1
    89    31    86    1
    90    31    87    1
    91    32    88    1
    92    32    89    1
    93    33    90    1
    94    33    91    1
    95    34    92    1
    96    34    93    1
    97    35    94    1
    98    36    95    1
    99    36    96    1
   100    36    97    1
   101    37    98    1
   102    37    99    1
   103    37   100    1
   104    38   101    1
   105    38   102    1
   106    39   103    1
   107    39   104    1
   108    40   105    1
   109    41   106    1
   110    41   107    1
