@<TRIPOS>MOLECULE
*****
 123 126 0 0 0
SMALL
GASTEIGER

@<TRIPOS>ATOM
      1 C          25.1187    9.7438    1.8006 C.3     1  LIG1       -0.0653
      2 C          25.4490    9.8987    0.3549 C.3     1  LIG1       -0.0559
      3 C          24.2744   10.3938   -0.4531 C.3     1  LIG1       -0.0533
      4 C          24.6091   10.4099   -1.9043 C.3     1  LIG1       -0.0531
      5 C          25.1339    9.0995   -2.4747 C.3     1  LIG1       -0.0531
      6 C          26.4968    8.4785   -2.2765 C.3     1  LIG1       -0.0531
      7 C          27.7669    9.3146   -2.5554 C.3     1  LIG1       -0.0530
      8 C          28.1157   10.5639   -1.7468 C.3     1  LIG1       -0.0510
      9 C          27.4721   11.9593   -1.9162 C.3     1  LIG1       -0.0294
     10 C          27.2444   12.7520   -3.2624 C.3     1  LIG1        0.0504
     11 O          26.6938   12.2750   -4.5331 O.3     1  LIG1       -0.3539
     12 C          25.5476   11.4334   -4.3867 C.3     1  LIG1        0.1508
     13 O          24.9377   10.6815   -5.4719 O.3     1  LIG1       -0.3282
     14 C          23.9258    9.6936   -5.0827 C.3     1  LIG1        0.1535
     15 O          23.4074    8.9288   -6.1420 O.3     1  LIG1       -0.3282
     16 C          22.5205    9.6692   -6.9080 C.3     1  LIG1        0.1509
     17 O          22.3190    8.9088   -8.0764 O.3     1  LIG1       -0.3517
     18 C          21.5911    9.6302   -9.0525 C.3     1  LIG1        0.0737
     19 C          20.1138    9.8945   -8.6428 C.3     1  LIG1        0.0715
     20 O          19.9454   10.9019   -7.6118 O.3     1  LIG1       -0.3740
     21 C          18.5936   11.0879   -7.0787 C.3     1  LIG1        0.0625
     22 H          18.3184   10.1023   -6.6793 H       1  LIG1        0.0599
     23 C          18.5358   12.1135   -5.8768 C.3     1  LIG1       -0.0255
     24 C          17.9123   13.5897   -6.1944 C.3     1  LIG1       -0.0413
     25 C          18.2572   14.0764   -7.6565 C.3     1  LIG1       -0.0078
     26 C          19.7730   13.9573   -7.6959 C.3     1  LIG1       -0.0556
     27 C          17.5266   12.9966   -8.5696 C.2     1  LIG1       -0.0648
     28 C          16.8842   13.2826   -9.6412 C.2     1  LIG1       -0.0839
     29 C          16.8472   14.6436  -10.3236 C.3     1  LIG1       -0.0311
     30 C          18.0849   15.4197   -9.8568 C.3     1  LIG1       -0.0307
     31 C          17.9887   15.6610   -8.3177 C.3     1  LIG1       -0.0285
     32 C          18.9561   16.8788   -7.9683 C.3     1  LIG1       -0.0486
     33 C          19.2775   17.9822   -9.0926 C.3     1  LIG1       -0.0468
     34 C          19.8097   17.3469  -10.4314 C.3     1  LIG1       -0.0259
     35 C          21.2059   16.8295  -10.0875 C.3     1  LIG1       -0.0590
     36 C          20.0031   18.1821  -11.8025 C.3     1  LIG1       -0.0328
     37 C          20.7730   17.4321  -13.0672 C.3     1  LIG1       -0.0405
     38 H          20.0561   16.6552  -13.3649 H       1  LIG1        0.0301
     39 C          22.0747   16.5941  -12.9031 C.3     1  LIG1       -0.0621
     40 C          20.9480   18.2690  -14.3887 C.3     1  LIG1       -0.0502
     41 C          21.6544   19.6285  -14.3621 C.3     1  LIG1       -0.0526
     42 C          21.8947   20.2373  -15.7805 C.3     1  LIG1       -0.0507
     43 C          20.6705   20.4811  -16.7027 C.3     1  LIG1       -0.0467
     44 C          19.7053   21.5027  -16.1030 C.3     1  LIG1       -0.0627
     45 C          21.1080   20.9597  -18.1012 C.3     1  LIG1       -0.0627
     46 C          18.5320   18.4561  -12.2308 C.3     1  LIG1       -0.0492
     47 C          17.6429   17.4428  -11.4829 C.3     1  LIG1       -0.0492
     48 C          18.6335   16.4425  -10.8653 C.3     1  LIG1       -0.0320
     49 C          17.5380   11.5154   -8.0882 C.3     1  LIG1       -0.0048
     50 H          25.9794    9.2924    2.2997 H       1  LIG1        0.0230
     51 H          24.2548    9.0853    1.9087 H       1  LIG1        0.0230
     52 H          24.9118   10.7215    2.2346 H       1  LIG1        0.0230
     53 H          25.7664    8.9198    0.0209 H       1  LIG1        0.0263
     54 H          26.2906   10.5827    0.2631 H       1  LIG1        0.0263
     55 H          24.0215   11.4185   -0.1560 H       1  LIG1        0.0265
     56 H          23.3889    9.7684   -0.3329 H       1  LIG1        0.0265
     57 H          25.3122   11.1987   -2.0554 H       1  LIG1        0.0265
     58 H          23.7296   10.7809   -2.4508 H       1  LIG1        0.0265
     59 H          25.3448    9.2777   -3.4934 H       1  LIG1        0.0265
     60 H          24.3190    8.3716   -2.4787 H       1  LIG1        0.0265
     61 H          26.5387    7.6770   -3.0385 H       1  LIG1        0.0265
     62 H          26.5272    7.9228   -1.3475 H       1  LIG1        0.0265
     63 H          27.8898    9.5254   -3.6242 H       1  LIG1        0.0265
     64 H          28.5723    8.5989   -2.3295 H       1  LIG1        0.0265
     65 H          29.1947   10.7244   -1.8671 H       1  LIG1        0.0266
     66 H          28.0290   10.2721   -0.6926 H       1  LIG1        0.0266
     67 H          28.1352   12.6185   -1.3288 H       1  LIG1        0.0287
     68 H          26.6009   12.0534   -1.2623 H       1  LIG1        0.0287
     69 H          28.2308   13.1421   -3.5244 H       1  LIG1        0.0561
     70 H          26.6398   13.6262   -2.9745 H       1  LIG1        0.0561
     71 H          24.7719   12.0002   -3.8692 H       1  LIG1        0.0872
     72 H          26.0824   10.7140   -3.8245 H       1  LIG1        0.0872
     73 H          23.1385   10.0975   -4.4230 H       1  LIG1        0.0873
     74 H          24.3238    8.8093   -4.6080 H       1  LIG1        0.0873
     75 H          22.9677   10.6416   -7.1284 H       1  LIG1        0.0872
     76 H          21.5868    9.7620   -6.3503 H       1  LIG1        0.0872
     77 H          21.6161    8.9779   -9.9345 H       1  LIG1        0.0584
     78 H          22.1421   10.5409   -9.3123 H       1  LIG1        0.0584
     79 H          19.6804    8.9447   -8.3086 H       1  LIG1        0.0583
     80 H          19.6088   10.2451   -9.5434 H       1  LIG1        0.0583
     81 H          19.5393   12.2279   -5.4474 H       1  LIG1        0.0290
     82 H          17.9347   11.6608   -5.0760 H       1  LIG1        0.0290
     83 H          18.3036   14.2790   -5.4360 H       1  LIG1        0.0274
     84 H          16.8246   13.5270   -6.0085 H       1  LIG1        0.0274
     85 H          20.1663   13.0535   -7.2592 H       1  LIG1        0.0238
     86 H          20.2149   14.7304   -7.0698 H       1  LIG1        0.0238
     87 H          20.1697   13.9810   -8.7061 H       1  LIG1        0.0238
     88 H          16.3574   12.4873  -10.2321 H       1  LIG1        0.0572
     89 H          15.9062   15.1532  -10.0931 H       1  LIG1        0.0310
     90 H          16.8871   14.4974  -11.4003 H       1  LIG1        0.0310
     91 H          18.8991   14.7068   -9.9511 H       1  LIG1        0.0309
     92 H          16.9677   15.9842   -8.0402 H       1  LIG1        0.0312
     93 H          19.9256   16.5039   -7.6564 H       1  LIG1        0.0268
     94 H          18.5749   17.4028   -7.0819 H       1  LIG1        0.0268
     95 H          20.0453   18.6610   -8.6901 H       1  LIG1        0.0271
     96 H          18.3975   18.6158   -9.2416 H       1  LIG1        0.0271
     97 H          21.3734   16.5457   -9.0512 H       1  LIG1        0.0235
     98 H          21.9347   17.6372  -10.2729 H       1  LIG1        0.0235
     99 H          21.4678   15.9572  -10.6653 H       1  LIG1        0.0235
    100 H          20.5200   19.1293  -11.6031 H       1  LIG1        0.0309
    101 H          22.8773   17.0979  -12.3591 H       1  LIG1        0.0233
    102 H          22.4936   16.3132  -13.8807 H       1  LIG1        0.0233
    103 H          21.8737   15.6081  -12.4683 H       1  LIG1        0.0233
    104 H          19.9612   18.3926  -14.8357 H       1  LIG1        0.0268
    105 H          21.5076   17.6464  -15.1024 H       1  LIG1        0.0268
    106 H          22.6406   19.5200  -13.8895 H       1  LIG1        0.0265
    107 H          21.0869   20.3343  -13.7493 H       1  LIG1        0.0265
    108 H          22.6094   19.5985  -16.3170 H       1  LIG1        0.0268
    109 H          22.4062   21.1986  -15.6356 H       1  LIG1        0.0268
    110 H          20.1264   19.5420  -16.8554 H       1  LIG1        0.0295
    111 H          19.2068   21.0895  -15.2221 H       1  LIG1        0.0232
    112 H          18.9261   21.7804  -16.8226 H       1  LIG1        0.0232
    113 H          20.2270   22.4198  -15.8093 H       1  LIG1        0.0232
    114 H          21.7384   21.8544  -18.0539 H       1  LIG1        0.0232
    115 H          20.2372   21.2030  -18.7237 H       1  LIG1        0.0232
    116 H          21.6662   20.1772  -18.6267 H       1  LIG1        0.0232
    117 H          18.3829   18.3372  -13.3087 H       1  LIG1        0.0268
    118 H          18.2398   19.4829  -11.9857 H       1  LIG1        0.0268
    119 H          16.9435   16.9517  -12.1666 H       1  LIG1        0.0268
    120 H          17.0325   17.9658  -10.7364 H       1  LIG1        0.0268
    121 H          18.9862   15.8224  -11.6973 H       1  LIG1        0.0309
    122 H          17.5796   10.8715   -8.9764 H       1  LIG1        0.0335
    123 H          16.5614   11.3351   -7.6194 H       1  LIG1        0.0335
@<TRIPOS>BOND
     1     1     2    1
     2     2     3    1
     3     3     4    1
     4     4     5    1
     5     5     6    1
     6     6     7    1
     7     7     8    1
     8     8     9    1
     9     9    10    1
    10    10    11    1
    11    11    12    1
    12    12    13    1
    13    13    14    1
    14    14    15    1
    15    15    16    1
    16    16    17    1
    17    17    18    1
    18    18    19    1
    19    19    20    1
    20    21    23    1
    21    23    24    1
    22    24    25    1
    23    25    27    1
    24    27    28    2
    25    28    29    1
    26    29    30    1
    27    30    31    1
    28    25    31    1
    29    31    32    1
    30    32    33    1
    31    33    34    1
    32    34    36    1
    33    37    40    1
    34    40    41    1
    35    41    42    1
    36    42    43    1
    37    43    44    1
    38    43    45    1
    39    36    46    1
    40    46    47    1
    41    47    48    1
    42    30    48    1
    43    34    48    1
    44    27    49    1
    45    21    49    1
    46    20    21    1
    47    21    22    1
    48    25    26    1
    49    34    35    1
    50    36    37    1
    51    37    39    1
    52    37    38    1
    53     1    50    1
    54     1    51    1
    55     1    52    1
    56     2    53    1
    57     2    54    1
    58     3    55    1
    59     3    56    1
    60     4    57    1
    61     4    58    1
    62     5    59    1
    63     5    60    1
    64     6    61    1
    65     6    62    1
    66     7    63    1
    67     7    64    1
    68     8    65    1
    69     8    66    1
    70     9    67    1
    71     9    68    1
    72    10    69    1
    73    10    70    1
    74    12    71    1
    75    12    72    1
    76    14    73    1
    77    14    74    1
    78    16    75    1
    79    16    76    1
    80    18    77    1
    81    18    78    1
    82    19    79    1
    83    19    80    1
    84    23    81    1
    85    23    82    1
    86    24    83    1
    87    24    84    1
    88    26    85    1
    89    26    86    1
    90    26    87    1
    91    28    88    1
    92    29    89    1
    93    29    90    1
    94    30    91    1
    95    31    92    1
    96    32    93    1
    97    32    94    1
    98    33    95    1
    99    33    96    1
   100    35    97    1
   101    35    98    1
   102    35    99    1
   103    36   100    1
   104    39   101    1
   105    39   102    1
   106    39   103    1
   107    40   104    1
   108    40   105    1
   109    41   106    1
   110    41   107    1
   111    42   108    1
   112    42   109    1
   113    43   110    1
   114    44   111    1
   115    44   112    1
   116    44   113    1
   117    45   114    1
   118    45   115    1
   119    45   116    1
   120    46   117    1
   121    46   118    1
   122    47   119    1
   123    47   120    1
   124    48   121    1
   125    49   122    1
   126    49   123    1
